xflr5 v6.57

test
T1-10.0 m/s-Panel-150000.0kg-x0.0m-Inviscid
QInf  =   10.000000 m/s
Alpha =    0.000000
Beta  =    0.000°
Phi   =    0.000°
Ctrl  =    0.000
CL    =    0.320243
Cy    =   -0.000000
Cd    =    0.003271     ICd   =    0.003271     PCd   =    0.000000
Cl   = -4.61539e-11
Cm   =   -0.538366
ICn   =    0.000000     PCn   =    0.000000 
XCP   =    8.131450     YCP   =    0.000000     ZCP   =    0.428631  
XNP   =    0.000000
Bending = 14667.076355

Main Wing
  y-span        Chord      Ai         Cl        PCd          ICd        CmGeom    CmAirf@chord/4    XTrtop    XTrBot      XCP       BM
  -21.7528     1.8586    -2.648    0.097478    0.000000    0.004509   -0.802780   -0.049467     0.0000    0.0000    0.7492    0.0000
  -21.6042     1.8927    -1.555    0.154083    0.000000    0.004185   -1.197645   -0.073468     0.0000    0.0000    0.7355    0.1245
  -21.3080     1.9608    -0.820    0.196164    0.000000    0.002807   -1.432995   -0.085926     0.0000    0.0000    0.7020    1.5682
  -20.8663     2.0624    -0.417    0.226463    0.000000    0.001649   -1.555609   -0.092096     0.0000    0.0000    0.6665    7.6227
  -20.2820     2.1967    -0.234    0.250615    0.000000    0.001025   -1.587565   -0.094623     0.0000    0.0000    0.6343   24.3421
  -19.5592     2.3629    -0.173    0.271409    0.000000    0.000821   -1.558025   -0.095561     0.0000    0.0000    0.6071   61.2076
  -18.7028     2.5598    -0.174    0.289658    0.000000    0.000882   -1.485682   -0.095867     0.0000    0.0000    0.5848   131.8701
  -17.7186     2.7861    -0.207    0.305409    0.000000    0.001106   -1.383613   -0.095913     0.0000    0.0000    0.5672   254.8554
  -16.6134     3.0402    -0.257    0.318522    0.000000    0.001431   -1.262370   -0.095848     0.0000    0.0000    0.5537   454.0869
  -15.3947     3.3204    -0.317    0.328881    0.000000    0.001820   -1.130769   -0.095732     0.0000    0.0000    0.5436   759.0877
  -14.0708     3.6248    -0.382    0.336424    0.000000    0.002245   -0.995910   -0.095595     0.0000    0.0000    0.5366   1204.7481
  -12.6508     3.9513    -0.451    0.341130    0.000000    0.002687   -0.863144   -0.095453     0.0000    0.0000    0.5323   1830.5692
  -11.1444     4.2976    -0.522    0.342990    0.000000    0.003128   -0.736297   -0.095316     0.0000    0.0000    0.5306   2679.3282
   -9.5619     4.6615    -0.595    0.341968    0.000000    0.003550   -0.617903   -0.095195     0.0000    0.0000    0.5314   3795.1554
   -7.9141     5.0404    -0.667    0.337960    0.000000    0.003934   -0.509518   -0.095110     0.0000    0.0000    0.5350   5221.0481
   -6.2122     5.4317    -0.735    0.330743    0.000000    0.004245   -0.412024   -0.095103     0.0000    0.0000    0.5419   6995.8843
   -4.4678     5.8327    -0.791    0.319892    0.000000    0.004419   -0.325903   -0.095269     0.0000    0.0000    0.5533   9151.0166
   -2.6930     6.2408    -0.807    0.304643    0.000000    0.004296   -0.251544   -0.095824     0.0000    0.0000    0.5720   11706.5160
   -0.8997     6.6531    -0.640    0.283570    0.000000    0.003172   -0.189780   -0.097322     0.0000    0.0000    0.6039   14667.0763
    0.8997     6.6531    -0.640    0.283570    0.000000    0.003172   -0.189780   -0.097322     0.0000    0.0000    0.6039   14667.0764
    2.6930     6.2408    -0.807    0.304643    0.000000    0.004296   -0.251544   -0.095824     0.0000    0.0000    0.5720   11706.5160
    4.4678     5.8327    -0.791    0.319892    0.000000    0.004419   -0.325903   -0.095269     0.0000    0.0000    0.5533   9151.0166
    6.2122     5.4317    -0.735    0.330743    0.000000    0.004245   -0.412024   -0.095103     0.0000    0.0000    0.5419   6995.8843
    7.9141     5.0404    -0.667    0.337960    0.000000    0.003934   -0.509518   -0.095110     0.0000    0.0000    0.5350   5221.0481
    9.5619     4.6615    -0.595    0.341968    0.000000    0.003550   -0.617903   -0.095195     0.0000    0.0000    0.5314   3795.1554
   11.1444     4.2976    -0.522    0.342990    0.000000    0.003128   -0.736297   -0.095316     0.0000    0.0000    0.5306   2679.3282
   12.6508     3.9513    -0.451    0.341130    0.000000    0.002687   -0.863144   -0.095453     0.0000    0.0000    0.5323   1830.5692
   14.0708     3.6248    -0.382    0.336424    0.000000    0.002245   -0.995910   -0.095595     0.0000    0.0000    0.5366   1204.7481
   15.3947     3.3204    -0.317    0.328881    0.000000    0.001820   -1.130769   -0.095732     0.0000    0.0000    0.5436   759.0877
   16.6134     3.0402    -0.257    0.318522    0.000000    0.001431   -1.262370   -0.095848     0.0000    0.0000    0.5537   454.0869
   17.7186     2.7861    -0.207    0.305409    0.000000    0.001106   -1.383613   -0.095913     0.0000    0.0000    0.5672   254.8554
   18.7028     2.5598    -0.174    0.289658    0.000000    0.000882   -1.485682   -0.095867     0.0000    0.0000    0.5848   131.8701
   19.5592     2.3629    -0.173    0.271409    0.000000    0.000821   -1.558025   -0.095561     0.0000    0.0000    0.6071   61.2076
   20.2820     2.1967    -0.234    0.250615    0.000000    0.001025   -1.587565   -0.094623     0.0000    0.0000    0.6343   24.3421
   20.8663     2.0624    -0.417    0.226463    0.000000    0.001649   -1.555609   -0.092096     0.0000    0.0000    0.6665    7.6227
   21.3080     1.9608    -0.820    0.196164    0.000000    0.002807   -1.432995   -0.085926     0.0000    0.0000    0.7020    1.5682
   21.6042     1.8927    -1.555    0.154083    0.000000    0.004185   -1.197645   -0.073468     0.0000    0.0000    0.7355    0.1245
   21.7528     1.8586    -2.648    0.097478    0.000000    0.004509   -0.802780   -0.049467     0.0000    0.0000    0.7492    0.0000


Main Wing Cp Coefficients
 Panel     CtrlPt.x        CtrlPt.y        CtrlPt.z       Nx      Ny       Nz        Area       Cp
Main WingCp Coefficients
Strip 1
  13       1.559e+01      -2.175e+01       5.540e-01          -0.002          -0.028          -1.000       2.007e-03          0.0027
  14       1.554e+01      -2.175e+01       5.579e-01          -0.096          -0.066          -0.993       5.938e-03          0.0669
  15       1.543e+01      -2.175e+01       5.618e-01          -0.001          -0.025          -1.000       9.458e-03          0.1132
  16       1.529e+01      -2.175e+01       5.553e-01           0.078           0.010          -0.997       1.251e-02          0.0981
  17       1.510e+01      -2.175e+01       5.369e-01           0.119           0.031          -0.992       1.487e-02          0.0605
  18       1.490e+01      -2.175e+01       5.116e-01           0.123           0.035          -0.992       1.632e-02          0.0090
  19       1.468e+01      -2.175e+01       4.882e-01           0.089           0.019          -0.996       1.673e-02         -0.0332
  20       1.445e+01      -2.175e+01       4.712e-01           0.065           0.009          -0.998       1.621e-02         -0.0496
  21       1.425e+01      -2.175e+01       4.595e-01           0.047           0.001          -0.999       1.476e-02         -0.0653
  22       1.406e+01      -2.175e+01       4.528e-01           0.024          -0.011          -1.000       1.247e-02         -0.0882
  23       1.392e+01      -2.175e+01       4.511e-01          -0.005          -0.027          -1.000       9.459e-03         -0.1277
  24       1.381e+01      -2.175e+01       4.534e-01          -0.047          -0.052          -0.998       5.914e-03         -0.3079
  25       1.376e+01      -2.175e+01       4.604e-01          -0.347          -0.238          -0.907       2.200e-03         -0.6033
  26       1.376e+01      -2.175e+01       4.839e-01          -0.718          -0.443           0.537       3.811e-03          0.5849
  27       1.381e+01      -2.175e+01       5.191e-01          -0.379          -0.223           0.898       6.611e-03         -0.1254
  28       1.392e+01      -2.175e+01       5.504e-01          -0.220          -0.123           0.968       9.803e-03         -0.2008
  29       1.406e+01      -2.175e+01       5.775e-01          -0.147          -0.078           0.986       1.266e-02         -0.1739
  30       1.425e+01      -2.174e+01       6.002e-01          -0.102          -0.050           0.994       1.485e-02         -0.1590
  31       1.445e+01      -2.174e+01       6.175e-01          -0.065          -0.027           0.998       1.621e-02         -0.1557
  32       1.468e+01      -2.174e+01       6.272e-01          -0.025          -0.003           1.000       1.665e-02         -0.1555
  33       1.490e+01      -2.174e+01       6.274e-01           0.024           0.023           0.999       1.616e-02         -0.1457
  34       1.510e+01      -2.174e+01       6.175e-01           0.074           0.049           0.996       1.478e-02         -0.1159
  35       1.529e+01      -2.174e+01       6.014e-01           0.105           0.065           0.992       1.254e-02         -0.0898
  36       1.543e+01      -2.175e+01       5.841e-01           0.131           0.077           0.988       9.554e-03         -0.0823
  37       1.554e+01      -2.175e+01       5.695e-01           0.155           0.088           0.984       5.990e-03         -0.1072
  38       1.559e+01      -2.175e+01       5.586e-01           0.321           0.154           0.934       2.140e-03         -0.0371
Strip 2
  39       1.553e+01      -2.160e+01       5.500e-01          -0.004          -0.029          -1.000       6.118e-03          0.0440
  40       1.548e+01      -2.160e+01       5.540e-01          -0.098          -0.066          -0.993       1.810e-02          0.1309
  41       1.537e+01      -2.160e+01       5.581e-01          -0.002          -0.026          -1.000       2.883e-02          0.1940
  42       1.522e+01      -2.160e+01       5.517e-01           0.076           0.010          -0.997       3.812e-02          0.1679
  43       1.503e+01      -2.160e+01       5.333e-01           0.117           0.030          -0.993       4.531e-02          0.1048
  44       1.482e+01      -2.160e+01       5.078e-01           0.121           0.034          -0.992       4.973e-02          0.0258
  45       1.460e+01      -2.160e+01       4.843e-01           0.087           0.019          -0.996       5.100e-02         -0.0345
  46       1.437e+01      -2.160e+01       4.672e-01           0.063           0.008          -0.998       4.941e-02         -0.0587
  47       1.416e+01      -2.160e+01       4.556e-01           0.045          -0.000          -0.999       4.500e-02         -0.0815
  48       1.398e+01      -2.160e+01       4.491e-01           0.023          -0.012          -1.000       3.801e-02         -0.1131
  49       1.383e+01      -2.160e+01       4.476e-01          -0.006          -0.028          -1.000       2.884e-02         -0.1604
  50       1.372e+01      -2.160e+01       4.500e-01          -0.049          -0.053          -0.997       1.803e-02         -0.3339
  51       1.367e+01      -2.160e+01       4.572e-01          -0.348          -0.239          -0.907       6.712e-03         -0.7179
  52       1.367e+01      -2.160e+01       4.812e-01          -0.718          -0.443           0.537       1.161e-02          0.6383
  53       1.372e+01      -2.160e+01       5.170e-01          -0.378          -0.223           0.899       2.014e-02         -0.0678
  54       1.383e+01      -2.160e+01       5.487e-01          -0.219          -0.123           0.968       2.987e-02         -0.2284
  55       1.398e+01      -2.160e+01       5.761e-01          -0.146          -0.077           0.986       3.858e-02         -0.2295
  56       1.416e+01      -2.160e+01       5.989e-01          -0.101          -0.049           0.994       4.527e-02         -0.2170
  57       1.437e+01      -2.160e+01       6.162e-01          -0.063          -0.026           0.998       4.941e-02         -0.2140
  58       1.460e+01      -2.160e+01       6.259e-01          -0.023          -0.003           1.000       5.076e-02         -0.2168
  59       1.482e+01      -2.160e+01       6.257e-01           0.025           0.024           0.999       4.928e-02         -0.2082
  60       1.503e+01      -2.160e+01       6.154e-01           0.075           0.049           0.996       4.507e-02         -0.1708
  61       1.522e+01      -2.160e+01       5.986e-01           0.106           0.065           0.992       3.824e-02         -0.1289
  62       1.537e+01      -2.160e+01       5.809e-01           0.132           0.078           0.988       2.913e-02         -0.0985
  63       1.548e+01      -2.160e+01       5.658e-01           0.157           0.089           0.984       1.827e-02         -0.0988
  64       1.553e+01      -2.160e+01       5.547e-01           0.322           0.155           0.934       6.528e-03         -0.0183
Strip 3
  65       1.541e+01      -2.130e+01       5.420e-01          -0.006          -0.030          -1.000       1.052e-02          0.0744
  66       1.535e+01      -2.130e+01       5.463e-01          -0.100          -0.067          -0.993       3.113e-02          0.1690
  67       1.525e+01      -2.130e+01       5.508e-01          -0.005          -0.027          -1.000       4.956e-02          0.2340
  68       1.509e+01      -2.130e+01       5.446e-01           0.074           0.009          -0.997       6.551e-02          0.1995
  69       1.490e+01      -2.130e+01       5.260e-01           0.115           0.029          -0.993       7.786e-02          0.1237
  70       1.468e+01      -2.130e+01       5.002e-01           0.119           0.033          -0.992       8.544e-02          0.0327
  71       1.445e+01      -2.130e+01       4.764e-01           0.085           0.017          -0.996       8.763e-02         -0.0363
  72       1.421e+01      -2.130e+01       4.594e-01           0.061           0.007          -0.998       8.491e-02         -0.0659
  73       1.399e+01      -2.130e+01       4.479e-01           0.043          -0.002          -0.999       7.734e-02         -0.0905
  74       1.380e+01      -2.130e+01       4.417e-01           0.020          -0.013          -1.000       6.532e-02         -0.1174
  75       1.365e+01      -2.130e+01       4.406e-01          -0.009          -0.029          -1.000       4.957e-02         -0.1526
  76       1.354e+01      -2.130e+01       4.433e-01          -0.051          -0.055          -0.997       3.100e-02         -0.3057
  77       1.348e+01      -2.130e+01       4.509e-01          -0.350          -0.240          -0.906       1.155e-02         -0.6786
  78       1.348e+01      -2.130e+01       4.758e-01          -0.718          -0.443           0.537       1.992e-02          0.6737
  79       1.354e+01      -2.130e+01       5.127e-01          -0.376          -0.222           0.900       3.456e-02         -0.0484
  80       1.365e+01      -2.130e+01       5.453e-01          -0.217          -0.121           0.969       5.129e-02         -0.2272
  81       1.380e+01      -2.130e+01       5.732e-01          -0.143          -0.076           0.987       6.627e-02         -0.2530
  82       1.399e+01      -2.130e+01       5.964e-01          -0.098          -0.048           0.994       7.778e-02         -0.2608
  83       1.421e+01      -2.130e+01       6.137e-01          -0.061          -0.025           0.998       8.492e-02         -0.2675
  84       1.445e+01      -2.130e+01       6.231e-01          -0.020          -0.001           1.000       8.725e-02         -0.2722
  85       1.468e+01      -2.130e+01       6.224e-01           0.028           0.025           0.999       8.471e-02         -0.2586
  86       1.490e+01      -2.130e+01       6.110e-01           0.078           0.051           0.996       7.750e-02         -0.2085
  87       1.509e+01      -2.130e+01       5.932e-01           0.109           0.066           0.992       6.575e-02         -0.1489
  88       1.525e+01      -2.130e+01       5.744e-01           0.135           0.079           0.988       5.010e-02         -0.0990
  89       1.535e+01      -2.130e+01       5.585e-01           0.159           0.090           0.983       3.141e-02         -0.0798
  90       1.541e+01      -2.130e+01       5.468e-01           0.324           0.156           0.933       1.123e-02          0.0065
Strip 4
  91       1.523e+01      -2.086e+01       5.300e-01          -0.010          -0.031          -0.999       1.538e-02          0.0795
  92       1.517e+01      -2.086e+01       5.347e-01          -0.104          -0.069          -0.992       4.555e-02          0.1773
  93       1.506e+01      -2.086e+01       5.399e-01          -0.008          -0.028          -1.000       7.249e-02          0.2437
  94       1.489e+01      -2.086e+01       5.340e-01           0.070           0.007          -0.998       9.578e-02          0.2081
  95       1.469e+01      -2.086e+01       5.152e-01           0.111           0.027          -0.993       1.138e-01          0.1294
  96       1.446e+01      -2.086e+01       4.888e-01           0.115           0.031          -0.993       1.249e-01          0.0354
  97       1.422e+01      -2.086e+01       4.647e-01           0.081           0.016          -0.997       1.281e-01         -0.0353
  98       1.397e+01      -2.086e+01       4.477e-01           0.057           0.005          -0.998       1.241e-01         -0.0643
  99       1.374e+01      -2.086e+01       4.365e-01           0.039          -0.004          -0.999       1.131e-01         -0.0853
 100       1.354e+01      -2.086e+01       4.306e-01           0.016          -0.015          -1.000       9.554e-02         -0.1067
 101       1.338e+01      -2.086e+01       4.300e-01          -0.013          -0.032          -0.999       7.250e-02         -0.1346
 102       1.326e+01      -2.086e+01       4.333e-01          -0.055          -0.057          -0.997       4.535e-02         -0.2704
 103       1.320e+01      -2.086e+01       4.416e-01          -0.353          -0.241          -0.904       1.693e-02         -0.5951
 104       1.320e+01      -2.086e+01       4.677e-01          -0.718          -0.443           0.538       2.906e-02          0.6710
 105       1.326e+01      -2.086e+01       5.063e-01          -0.374          -0.220           0.901       5.045e-02         -0.0711
 106       1.338e+01      -2.086e+01       5.402e-01          -0.213          -0.119           0.970       7.493e-02         -0.2435
 107       1.354e+01      -2.086e+01       5.690e-01          -0.140          -0.074           0.987       9.685e-02         -0.2692
 108       1.374e+01      -2.086e+01       5.927e-01          -0.095          -0.046           0.994       1.137e-01         -0.2825
 109       1.397e+01      -2.086e+01       6.100e-01          -0.057          -0.023           0.998       1.242e-01         -0.2964
 110       1.422e+01      -2.086e+01       6.190e-01          -0.017           0.001           1.000       1.276e-01         -0.3056
 111       1.446e+01      -2.086e+01       6.173e-01           0.031           0.027           0.999       1.239e-01         -0.2916
 112       1.469e+01      -2.086e+01       6.046e-01           0.081           0.052           0.995       1.134e-01         -0.2364
 113       1.489e+01      -2.086e+01       5.851e-01           0.112           0.068           0.991       9.622e-02         -0.1691
 114       1.506e+01      -2.086e+01       5.647e-01           0.138           0.080           0.987       7.332e-02         -0.1106
 115       1.517e+01      -2.086e+01       5.476e-01           0.163           0.091           0.982       4.598e-02         -0.0830
 116       1.523e+01      -2.086e+01       5.351e-01           0.327           0.157           0.932       1.645e-02          0.0073
Strip 5
 117       1.500e+01      -2.028e+01       5.142e-01          -0.014          -0.033          -0.999       2.088e-02          0.0785
 118       1.493e+01      -2.028e+01       5.195e-01          -0.108          -0.070          -0.992       6.186e-02          0.1784
 119       1.481e+01      -2.028e+01       5.255e-01          -0.013          -0.030          -0.999       9.838e-02          0.2460
 120       1.464e+01      -2.028e+01       5.199e-01           0.066           0.005          -0.998       1.299e-01          0.2107
 121       1.442e+01      -2.028e+01       5.008e-01           0.107           0.025          -0.994       1.544e-01          0.1320
 122       1.418e+01      -2.028e+01       4.738e-01           0.111           0.029          -0.993       1.694e-01          0.0384
 123       1.391e+01      -2.028e+01       4.492e-01           0.077           0.013          -0.997       1.738e-01         -0.0308
 124       1.365e+01      -2.028e+01       4.322e-01           0.053           0.002          -0.999       1.684e-01         -0.0576
 125       1.341e+01      -2.028e+01       4.213e-01           0.035          -0.006          -0.999       1.535e-01         -0.0756
 126       1.319e+01      -2.028e+01       4.160e-01           0.012          -0.018          -1.000       1.296e-01         -0.0932
 127       1.302e+01      -2.028e+01       4.161e-01          -0.017          -0.034          -0.999       9.841e-02         -0.1146
 128       1.290e+01      -2.028e+01       4.202e-01          -0.059          -0.059          -0.996       6.157e-02         -0.2322
 129       1.283e+01      -2.028e+01       4.292e-01          -0.356          -0.243          -0.902       2.303e-02         -0.4980
 130       1.283e+01      -2.028e+01       4.570e-01          -0.717          -0.442           0.538       3.933e-02          0.6571
 131       1.290e+01      -2.028e+01       4.979e-01          -0.371          -0.218           0.903       6.831e-02         -0.1070
 132       1.302e+01      -2.028e+01       5.335e-01          -0.210          -0.117           0.971       1.015e-01         -0.2672
 133       1.319e+01      -2.028e+01       5.634e-01          -0.136          -0.071           0.988       1.313e-01         -0.2871
 134       1.341e+01      -2.027e+01       5.877e-01          -0.091          -0.043           0.995       1.542e-01         -0.2985
 135       1.365e+01      -2.027e+01       6.051e-01          -0.053          -0.020           0.998       1.684e-01         -0.3130
 136       1.391e+01      -2.027e+01       6.136e-01          -0.013           0.003           1.000       1.731e-01         -0.3232
 137       1.418e+01      -2.027e+01       6.107e-01           0.036           0.029           0.999       1.682e-01         -0.3091
 138       1.442e+01      -2.027e+01       5.961e-01           0.085           0.054           0.995       1.540e-01         -0.2519
 139       1.464e+01      -2.027e+01       5.744e-01           0.117           0.070           0.991       1.307e-01         -0.1813
 140       1.481e+01      -2.027e+01       5.519e-01           0.142           0.082           0.986       9.958e-02         -0.1190
 141       1.493e+01      -2.028e+01       5.332e-01           0.167           0.093           0.982       6.246e-02         -0.0878
 142       1.500e+01      -2.028e+01       5.196e-01           0.330           0.158           0.931       2.237e-02          0.0051
Strip 6
 143       1.470e+01      -1.955e+01       4.946e-01          -0.019          -0.035          -0.999       2.714e-02          0.0769
 144       1.464e+01      -1.955e+01       5.006e-01          -0.113          -0.072          -0.991       8.045e-02          0.1787
 145       1.451e+01      -1.955e+01       5.077e-01          -0.017          -0.032          -0.999       1.279e-01          0.2471
 146       1.432e+01      -1.955e+01       5.026e-01           0.061           0.003          -0.998       1.688e-01          0.2126
 147       1.409e+01      -1.955e+01       4.830e-01           0.102           0.023          -0.994       2.005e-01          0.1346
 148       1.382e+01      -1.955e+01       4.552e-01           0.107           0.027          -0.994       2.200e-01          0.0421
 149       1.354e+01      -1.955e+01       4.301e-01           0.072           0.011          -0.997       2.258e-01         -0.0253
 150       1.326e+01      -1.955e+01       4.131e-01           0.048          -0.000          -0.999       2.188e-01         -0.0501
 151       1.300e+01      -1.955e+01       4.026e-01           0.030          -0.009          -1.000       1.994e-01         -0.0657
 152       1.276e+01      -1.955e+01       3.979e-01           0.007          -0.021          -1.000       1.685e-01         -0.0797
 153       1.258e+01      -1.956e+01       3.989e-01          -0.022          -0.037          -0.999       1.279e-01         -0.0948
 154       1.245e+01      -1.955e+01       4.039e-01          -0.064          -0.062          -0.996       8.007e-02         -0.1947
 155       1.238e+01      -1.955e+01       4.139e-01          -0.359          -0.245          -0.901       3.000e-02         -0.4025
 156       1.238e+01      -1.955e+01       4.438e-01          -0.717          -0.442           0.539       5.098e-02          0.6375
 157       1.245e+01      -1.955e+01       4.875e-01          -0.367          -0.216           0.905       8.856e-02         -0.1464
 158       1.258e+01      -1.955e+01       5.251e-01          -0.205          -0.114           0.972       1.318e-01         -0.2924
 159       1.276e+01      -1.955e+01       5.564e-01          -0.131          -0.068           0.989       1.705e-01         -0.3049
 160       1.300e+01      -1.955e+01       5.815e-01          -0.086          -0.041           0.995       2.003e-01         -0.3127
 161       1.326e+01      -1.955e+01       5.991e-01          -0.048          -0.018           0.999       2.189e-01         -0.3252
 162       1.354e+01      -1.955e+01       6.069e-01          -0.008           0.005           1.000       2.250e-01         -0.3343
 163       1.382e+01      -1.955e+01       6.025e-01           0.040           0.031           0.999       2.187e-01         -0.3190
 164       1.409e+01      -1.955e+01       5.855e-01           0.090           0.056           0.994       2.002e-01         -0.2601
 165       1.432e+01      -1.955e+01       5.611e-01           0.121           0.072           0.990       1.700e-01         -0.1877
 166       1.451e+01      -1.955e+01       5.361e-01           0.147           0.084           0.986       1.296e-01         -0.1236
 167       1.464e+01      -1.955e+01       5.153e-01           0.171           0.094           0.981       8.127e-02         -0.0907
 168       1.470e+01      -1.955e+01       5.004e-01           0.334           0.159           0.929       2.913e-02          0.0041
Strip 7
 169       1.436e+01      -1.870e+01       4.713e-01          -0.023          -0.037          -0.999       3.428e-02          0.0759
 170       1.429e+01      -1.870e+01       4.782e-01          -0.117          -0.074          -0.990       1.017e-01          0.1793
 171       1.414e+01      -1.870e+01       4.866e-01          -0.022          -0.034          -0.999       1.615e-01          0.2483
 172       1.394e+01      -1.870e+01       4.820e-01           0.057           0.001          -0.998       2.131e-01          0.2144
 173       1.369e+01      -1.870e+01       4.620e-01           0.098           0.021          -0.995       2.530e-01          0.1371
 174       1.340e+01      -1.870e+01       4.332e-01           0.102           0.024          -0.994       2.776e-01          0.0457
 175       1.310e+01      -1.870e+01       4.074e-01           0.068           0.009          -0.998       2.850e-01         -0.0201
 176       1.279e+01      -1.870e+01       3.904e-01           0.044          -0.003          -0.999       2.763e-01         -0.0432
 177       1.251e+01      -1.870e+01       3.803e-01           0.026          -0.011          -1.000       2.518e-01         -0.0566
 178       1.226e+01      -1.870e+01       3.765e-01           0.003          -0.023          -1.000       2.128e-01         -0.0673
 179       1.205e+01      -1.870e+01       3.785e-01          -0.026          -0.040          -0.999       1.616e-01         -0.0765
 180       1.191e+01      -1.870e+01       3.845e-01          -0.068          -0.065          -0.996       1.012e-01         -0.1601
 181       1.184e+01      -1.870e+01       3.957e-01          -0.362          -0.247          -0.899       3.798e-02         -0.3162
 182       1.184e+01      -1.870e+01       4.281e-01          -0.716          -0.442           0.540       6.418e-02          0.6153
 183       1.191e+01      -1.870e+01       4.751e-01          -0.364          -0.214           0.906       1.116e-01         -0.1852
 184       1.205e+01      -1.870e+01       5.153e-01          -0.201          -0.112           0.973       1.662e-01         -0.3165
 185       1.226e+01      -1.870e+01       5.482e-01          -0.127          -0.066           0.990       2.151e-01         -0.3214
 186       1.251e+01      -1.870e+01       5.742e-01          -0.081          -0.038           0.996       2.528e-01         -0.3252
 187       1.279e+01      -1.870e+01       5.919e-01          -0.044          -0.015           0.999       2.763e-01         -0.3352
 188       1.310e+01      -1.870e+01       5.989e-01          -0.003           0.008           1.000       2.842e-01         -0.3425
 189       1.340e+01      -1.870e+01       5.927e-01           0.045           0.033           0.998       2.762e-01         -0.3256
 190       1.369e+01      -1.870e+01       5.730e-01           0.094           0.058           0.994       2.530e-01         -0.2651
 191       1.394e+01      -1.870e+01       5.454e-01           0.126           0.074           0.989       2.148e-01         -0.1913
 192       1.414e+01      -1.870e+01       5.174e-01           0.151           0.086           0.985       1.638e-01         -0.1260
 193       1.429e+01      -1.870e+01       4.942e-01           0.175           0.096           0.980       1.027e-01         -0.0919
 194       1.436e+01      -1.870e+01       4.777e-01           0.338           0.161           0.927       3.686e-02          0.0044
Strip 8
 195       1.396e+01      -1.771e+01       4.447e-01          -0.028          -0.038          -0.999       4.236e-02          0.0752
 196       1.388e+01      -1.771e+01       4.525e-01          -0.121          -0.076          -0.990       1.257e-01          0.1800
 197       1.373e+01      -1.771e+01       4.623e-01          -0.026          -0.036          -0.999       1.996e-01          0.2494
 198       1.351e+01      -1.771e+01       4.583e-01           0.052          -0.001          -0.999       2.632e-01          0.2161
 199       1.323e+01      -1.771e+01       4.378e-01           0.093           0.019          -0.995       3.125e-01          0.1395
 200       1.292e+01      -1.771e+01       4.079e-01           0.098           0.022          -0.995       3.429e-01          0.0490
 201       1.259e+01      -1.771e+01       3.813e-01           0.063           0.006          -0.998       3.520e-01         -0.0155
 202       1.226e+01      -1.771e+01       3.643e-01           0.039          -0.005          -0.999       3.413e-01         -0.0370
 203       1.195e+01      -1.771e+01       3.548e-01           0.021          -0.014          -1.000       3.111e-01         -0.0485
 204       1.167e+01      -1.771e+01       3.519e-01          -0.002          -0.026          -1.000       2.629e-01         -0.0563
 205       1.145e+01      -1.771e+01       3.550e-01          -0.031          -0.043          -0.999       1.997e-01         -0.0604
 206       1.130e+01      -1.771e+01       3.623e-01          -0.073          -0.068          -0.995       1.251e-01         -0.1298
 207       1.122e+01      -1.771e+01       3.749e-01          -0.365          -0.249          -0.897       4.705e-02         -0.2423
 208       1.122e+01      -1.771e+01       4.101e-01          -0.716          -0.442           0.541       7.907e-02          0.5928
 209       1.130e+01      -1.771e+01       4.609e-01          -0.361          -0.212           0.908       1.375e-01         -0.2209
 210       1.145e+01      -1.771e+01       5.039e-01          -0.197          -0.109           0.974       2.050e-01         -0.3383
 211       1.167e+01      -1.771e+01       5.388e-01          -0.123          -0.063           0.990       2.656e-01         -0.3361
 212       1.195e+01      -1.771e+01       5.658e-01          -0.077          -0.035           0.996       3.122e-01         -0.3360
 213       1.226e+01      -1.771e+01       5.836e-01          -0.039          -0.013           0.999       3.413e-01         -0.3436
 214       1.259e+01      -1.771e+01       5.898e-01           0.001           0.010           1.000       3.511e-01         -0.3490
 215       1.292e+01      -1.771e+01       5.815e-01           0.049           0.036           0.998       3.414e-01         -0.3305
 216       1.323e+01      -1.771e+01       5.587e-01           0.099           0.060           0.993       3.128e-01         -0.2685
 217       1.351e+01      -1.771e+01       5.274e-01           0.130           0.076           0.989       2.656e-01         -0.1937
 218       1.373e+01      -1.771e+01       4.958e-01           0.155           0.087           0.984       2.025e-01         -0.1273
 219       1.388e+01      -1.771e+01       4.699e-01           0.180           0.098           0.979       1.271e-01         -0.0923
 220       1.396e+01      -1.771e+01       4.515e-01           0.341           0.162           0.926       4.563e-02          0.0054
Strip 9
 221       1.352e+01      -1.661e+01       4.147e-01          -0.032          -0.040          -0.999       5.143e-02          0.0746
 222       1.343e+01      -1.661e+01       4.237e-01          -0.126          -0.077          -0.989       1.527e-01          0.1808
 223       1.326e+01      -1.661e+01       4.351e-01          -0.031          -0.038          -0.999       2.424e-01          0.2504
 224       1.302e+01      -1.661e+01       4.317e-01           0.048          -0.003          -0.999       3.194e-01          0.2176
 225       1.272e+01      -1.661e+01       4.107e-01           0.089           0.017          -0.996       3.791e-01          0.1415
 226       1.238e+01      -1.661e+01       3.795e-01           0.093           0.020          -0.995       4.159e-01          0.0517
 227       1.202e+01      -1.661e+01       3.520e-01           0.059           0.004          -0.998       4.271e-01         -0.0116
 228       1.166e+01      -1.661e+01       3.350e-01           0.035          -0.008          -0.999       4.142e-01         -0.0319
 229       1.132e+01      -1.661e+01       3.261e-01           0.017          -0.016          -1.000       3.776e-01         -0.0418
 230       1.102e+01      -1.661e+01       3.242e-01          -0.006          -0.029          -1.000       3.192e-01         -0.0472
 231       1.078e+01      -1.661e+01       3.287e-01          -0.035          -0.045          -0.998       2.425e-01         -0.0469
 232       1.061e+01      -1.661e+01       3.374e-01          -0.077          -0.071          -0.995       1.519e-01         -0.1046
 233       1.052e+01      -1.661e+01       3.515e-01          -0.368          -0.251          -0.895       5.724e-02         -0.1820
 234       1.052e+01      -1.661e+01       3.899e-01          -0.716          -0.441           0.541       9.571e-02          0.5717
 235       1.061e+01      -1.661e+01       4.450e-01          -0.358          -0.210           0.910       1.665e-01         -0.2519
 236       1.078e+01      -1.661e+01       4.912e-01          -0.193          -0.107           0.975       2.485e-01         -0.3569
 237       1.102e+01      -1.661e+01       5.282e-01          -0.118          -0.061           0.991       3.221e-01         -0.3484
 238       1.132e+01      -1.661e+01       5.564e-01          -0.073          -0.033           0.997       3.787e-01         -0.3450
 239       1.166e+01      -1.661e+01       5.744e-01          -0.035          -0.011           0.999       4.141e-01         -0.3504
 240       1.202e+01      -1.661e+01       5.795e-01           0.006           0.012           1.000       4.262e-01         -0.3542
 241       1.238e+01      -1.661e+01       5.689e-01           0.054           0.038           0.998       4.146e-01         -0.3342
 242       1.272e+01      -1.661e+01       5.425e-01           0.103           0.062           0.993       3.799e-01         -0.2710
 243       1.302e+01      -1.661e+01       5.071e-01           0.134           0.077           0.988       3.227e-01         -0.1953
 244       1.326e+01      -1.661e+01       4.717e-01           0.160           0.089           0.983       2.461e-01         -0.1281
 245       1.343e+01      -1.661e+01       4.426e-01           0.184           0.100           0.978       1.544e-01         -0.0923
 246       1.352e+01      -1.661e+01       4.222e-01           0.345           0.164           0.924       5.548e-02          0.0067
Strip 10
 247       1.302e+01      -1.539e+01       3.817e-01          -0.036          -0.042          -0.998       6.148e-02          0.0741
 248       1.293e+01      -1.539e+01       3.918e-01          -0.129          -0.079          -0.988       1.826e-01          0.1814
 249       1.274e+01      -1.539e+01       4.051e-01          -0.035          -0.039          -0.999       2.897e-01          0.2512
 250       1.248e+01      -1.539e+01       4.024e-01           0.044          -0.005          -0.999       3.817e-01          0.2188
 251       1.215e+01      -1.539e+01       3.807e-01           0.085           0.015          -0.996       4.528e-01          0.1431
 252       1.178e+01      -1.539e+01       3.481e-01           0.089           0.018          -0.996       4.968e-01          0.0539
 253       1.139e+01      -1.539e+01       3.197e-01           0.055           0.002          -0.998       5.103e-01         -0.0085
 254       1.099e+01      -1.539e+01       3.027e-01           0.031          -0.010          -0.999       4.949e-01         -0.0279
 255       1.062e+01      -1.539e+01       2.945e-01           0.013          -0.019          -1.000       4.512e-01         -0.0365
 256       1.030e+01      -1.539e+01       2.937e-01          -0.010          -0.031          -0.999       3.815e-01         -0.0399
 257       1.003e+01      -1.539e+01       2.997e-01          -0.039          -0.048          -0.998       2.899e-01         -0.0362
 258       9.848e+00      -1.539e+01       3.099e-01          -0.081          -0.073          -0.994       1.816e-01         -0.0847
 259       9.753e+00      -1.539e+01       3.256e-01          -0.371          -0.253          -0.894       6.856e-02         -0.1356
 260       9.753e+00      -1.539e+01       3.677e-01          -0.715          -0.441           0.542       1.141e-01          0.5537
 261       9.848e+00      -1.539e+01       4.274e-01          -0.355          -0.208           0.912       1.986e-01         -0.2773
 262       1.003e+01      -1.539e+01       4.771e-01          -0.189          -0.104           0.976       2.967e-01         -0.3719
 263       1.030e+01      -1.539e+01       5.165e-01          -0.114          -0.058           0.992       3.846e-01         -0.3583
 264       1.062e+01      -1.539e+01       5.460e-01          -0.069          -0.031           0.997       4.524e-01         -0.3521
 265       1.099e+01      -1.539e+01       5.641e-01          -0.031          -0.008           0.999       4.948e-01         -0.3557
 266       1.139e+01      -1.539e+01       5.682e-01           0.010           0.014           1.000       5.093e-01         -0.3580
 267       1.178e+01      -1.539e+01       5.551e-01           0.058           0.040           0.998       4.956e-01         -0.3369
 268       1.215e+01      -1.539e+01       5.248e-01           0.107           0.064           0.992       4.543e-01         -0.2727
 269       1.248e+01      -1.539e+01       4.848e-01           0.138           0.079           0.987       3.859e-01         -0.1963
 270       1.274e+01      -1.539e+01       4.450e-01           0.163           0.091           0.982       2.943e-01         -0.1284
 271       1.293e+01      -1.539e+01       4.125e-01           0.187           0.101           0.977       1.847e-01         -0.0921
 272       1.302e+01      -1.539e+01       3.899e-01           0.348           0.165           0.923       6.642e-02          0.0078
Strip 11
 273       1.249e+01      -1.407e+01       3.458e-01          -0.040          -0.043          -0.998       7.244e-02          0.0735
 274       1.239e+01      -1.407e+01       3.572e-01          -0.133          -0.080          -0.988       2.153e-01          0.1819
 275       1.218e+01      -1.407e+01       3.724e-01          -0.038          -0.041          -0.998       3.414e-01          0.2519
 276       1.190e+01      -1.407e+01       3.706e-01           0.040          -0.006          -0.999       4.496e-01          0.2197
 277       1.154e+01      -1.407e+01       3.482e-01           0.082           0.013          -0.997       5.333e-01          0.1443
 278       1.113e+01      -1.407e+01       3.141e-01           0.086           0.016          -0.996       5.851e-01          0.0556
 279       1.070e+01      -1.407e+01       2.846e-01           0.051           0.000          -0.999       6.010e-01         -0.0062
 280       1.027e+01      -1.407e+01       2.676e-01           0.027          -0.012          -1.000       5.830e-01         -0.0249
 281       9.868e+00      -1.407e+01       2.601e-01           0.009          -0.021          -1.000       5.316e-01         -0.0325
 282       9.511e+00      -1.407e+01       2.606e-01          -0.014          -0.033          -0.999       4.495e-01         -0.0345
 283       9.224e+00      -1.407e+01       2.681e-01          -0.043          -0.050          -0.998       3.416e-01         -0.0284
 284       9.022e+00      -1.407e+01       2.800e-01          -0.085          -0.075          -0.994       2.141e-01         -0.0702
 285       8.919e+00      -1.407e+01       2.976e-01          -0.373          -0.254          -0.892       8.093e-02         -0.1025
 286       8.919e+00      -1.407e+01       3.435e-01          -0.715          -0.441           0.543       1.341e-01          0.5400
 287       9.022e+00      -1.407e+01       4.083e-01          -0.352          -0.206           0.913       2.335e-01         -0.2963
 288       9.224e+00      -1.407e+01       4.618e-01          -0.186          -0.102           0.977       3.491e-01         -0.3831
 289       9.511e+00      -1.407e+01       5.037e-01          -0.111          -0.056           0.992       4.529e-01         -0.3655
 290       9.868e+00      -1.407e+01       5.347e-01          -0.065          -0.029           0.997       5.328e-01         -0.3572
 291       1.027e+01      -1.407e+01       5.530e-01          -0.027          -0.006           1.000       5.829e-01         -0.3594
 292       1.070e+01      -1.407e+01       5.559e-01           0.013           0.016           1.000       6.001e-01         -0.3607
 293       1.113e+01      -1.407e+01       5.400e-01           0.061           0.041           0.997       5.841e-01         -0.3387
 294       1.154e+01      -1.407e+01       5.055e-01           0.111           0.066           0.992       5.355e-01         -0.2737
 295       1.190e+01      -1.407e+01       4.605e-01           0.141           0.081           0.987       4.550e-01         -0.1969
 296       1.218e+01      -1.407e+01       4.160e-01           0.167           0.092           0.982       3.470e-01         -0.1286
 297       1.239e+01      -1.407e+01       3.798e-01           0.191           0.102           0.976       2.178e-01         -0.0919
 298       1.249e+01      -1.407e+01       3.547e-01           0.350           0.166           0.922       7.838e-02          0.0089
Strip 12
 299       1.192e+01      -1.265e+01       3.073e-01          -0.043          -0.044          -0.998       8.425e-02          0.0730
 300       1.180e+01      -1.265e+01       3.202e-01          -0.136          -0.082          -0.987       2.505e-01          0.1822
 301       1.158e+01      -1.265e+01       3.374e-01          -0.042          -0.042          -0.998       3.970e-01          0.2523
 302       1.127e+01      -1.265e+01       3.365e-01           0.037          -0.008          -0.999       5.226e-01          0.2204
 303       1.088e+01      -1.265e+01       3.133e-01           0.078           0.012          -0.997       6.198e-01          0.1452
 304       1.044e+01      -1.265e+01       2.776e-01           0.083           0.015          -0.996       6.800e-01          0.0566
 305       9.970e+00      -1.265e+01       2.470e-01           0.048          -0.002          -0.999       6.986e-01         -0.0048
 306       9.501e+00      -1.265e+01       2.300e-01           0.024          -0.013          -1.000       6.778e-01         -0.0230
 307       9.059e+00      -1.265e+01       2.232e-01           0.006          -0.023          -1.000       6.180e-01         -0.0301
 308       8.670e+00      -1.265e+01       2.250e-01          -0.017          -0.035          -0.999       5.226e-01         -0.0312
 309       8.356e+00      -1.265e+01       2.343e-01          -0.046          -0.052          -0.998       3.973e-01         -0.0235
 310       8.137e+00      -1.265e+01       2.480e-01          -0.088          -0.077          -0.993       2.491e-01         -0.0612
 311       8.024e+00      -1.265e+01       2.675e-01          -0.376          -0.256          -0.891       9.427e-02         -0.0822
 312       8.024e+00      -1.265e+01       3.175e-01          -0.715          -0.441           0.543       1.556e-01          0.5312
 313       8.137e+00      -1.265e+01       3.878e-01          -0.350          -0.205           0.914       2.710e-01         -0.3087
 314       8.356e+00      -1.265e+01       4.454e-01          -0.183          -0.101           0.978       4.056e-01         -0.3902
 315       8.670e+00      -1.265e+01       4.901e-01          -0.108          -0.054           0.993       5.263e-01         -0.3699
 316       9.059e+00      -1.265e+01       5.225e-01          -0.062          -0.027           0.998       6.193e-01         -0.3602
 317       9.501e+00      -1.265e+01       5.411e-01          -0.024          -0.005           1.000       6.776e-01         -0.3616
 318       9.970e+00      -1.265e+01       5.427e-01           0.016           0.018           1.000       6.978e-01         -0.3622
 319       1.044e+01      -1.265e+01       5.239e-01           0.064           0.043           0.997       6.793e-01         -0.3395
 320       1.088e+01      -1.265e+01       4.847e-01           0.114           0.067           0.991       6.230e-01         -0.2742
 321       1.127e+01      -1.265e+01       4.345e-01           0.145           0.082           0.986       5.293e-01         -0.1971
 322       1.158e+01      -1.265e+01       3.849e-01           0.170           0.093           0.981       4.038e-01         -0.1285
 323       1.180e+01      -1.265e+01       3.448e-01           0.194           0.104           0.976       2.535e-01         -0.0916
 324       1.192e+01      -1.265e+01       3.170e-01           0.353           0.167           0.921       9.125e-02          0.0099
Strip 13
 325       1.131e+01      -1.114e+01       2.665e-01          -0.046          -0.046          -0.998       9.675e-02          0.0724
 326       1.119e+01      -1.114e+01       2.808e-01          -0.139          -0.083          -0.987       2.877e-01          0.1824
 327       1.095e+01      -1.114e+01       3.003e-01          -0.044          -0.043          -0.998       4.559e-01          0.2525
 328       1.061e+01      -1.114e+01       3.003e-01           0.034          -0.009          -0.999       6.000e-01          0.2208
 329       1.018e+01      -1.114e+01       2.763e-01           0.075           0.010          -0.997       7.115e-01          0.1456
 330       9.701e+00      -1.114e+01       2.389e-01           0.080           0.013          -0.997       7.805e-01          0.0571
 331       9.191e+00      -1.114e+01       2.071e-01           0.045          -0.003          -0.999       8.020e-01         -0.0042
 332       8.681e+00      -1.114e+01       1.901e-01           0.021          -0.015          -1.000       7.781e-01         -0.0223
 333       8.200e+00      -1.114e+01       1.842e-01           0.003          -0.024          -1.000       7.096e-01         -0.0291
 334       7.777e+00      -1.114e+01       1.873e-01          -0.020          -0.037          -0.999       6.001e-01         -0.0298
 335       7.436e+00      -1.114e+01       1.984e-01          -0.049          -0.054          -0.997       4.562e-01         -0.0214
 336       7.197e+00      -1.114e+01       2.140e-01          -0.091          -0.079          -0.993       2.861e-01         -0.0574
 337       7.074e+00      -1.114e+01       2.356e-01          -0.378          -0.257          -0.890       1.084e-01         -0.0743
 338       7.074e+00      -1.114e+01       2.900e-01          -0.714          -0.440           0.544       1.783e-01          0.5280
 339       7.197e+00      -1.114e+01       3.661e-01          -0.347          -0.204           0.915       3.107e-01         -0.3140
 340       7.436e+00      -1.114e+01       4.281e-01          -0.180          -0.099           0.979       4.652e-01         -0.3931
 341       7.777e+00      -1.114e+01       4.757e-01          -0.105          -0.053           0.993       6.039e-01         -0.3716
 342       8.200e+00      -1.114e+01       5.097e-01          -0.059          -0.025           0.998       7.108e-01         -0.3613
 343       8.681e+00      -1.114e+01       5.285e-01          -0.021          -0.003           1.000       7.779e-01         -0.3622
 344       9.191e+00      -1.114e+01       5.287e-01           0.019           0.019           1.000       8.012e-01         -0.3625
 345       9.701e+00      -1.114e+01       5.067e-01           0.067           0.044           0.997       7.801e-01         -0.3395
 346       1.018e+01      -1.114e+01       4.628e-01           0.117           0.069           0.991       7.156e-01         -0.2740
 347       1.061e+01      -1.114e+01       4.068e-01           0.147           0.083           0.986       6.081e-01         -0.1969
 348       1.095e+01      -1.114e+01       3.520e-01           0.173           0.094           0.980       4.639e-01         -0.1282
 349       1.119e+01      -1.114e+01       3.076e-01           0.196           0.105           0.975       2.912e-01         -0.0912
 350       1.131e+01      -1.114e+01       2.771e-01           0.355           0.168           0.920       1.049e-01          0.0107
Strip 14
 351       1.067e+01      -9.559e+00       2.236e-01          -0.049          -0.047          -0.998       1.098e-01          0.0717
 352       1.054e+01      -9.559e+00       2.395e-01          -0.141          -0.084          -0.986       3.266e-01          0.1825
 353       1.028e+01      -9.559e+00       2.613e-01          -0.047          -0.045          -0.998       5.172e-01          0.2526
 354       9.907e+00      -9.559e+00       2.622e-01           0.031          -0.010          -0.999       6.805e-01          0.2209
 355       9.448e+00      -9.559e+00       2.374e-01           0.073           0.009          -0.997       8.069e-01          0.1456
 356       8.927e+00      -9.559e+00       1.982e-01           0.077           0.012          -0.997       8.851e-01          0.0569
 357       8.373e+00      -9.560e+00       1.651e-01           0.043          -0.005          -0.999       9.096e-01         -0.0045
 358       7.819e+00      -9.560e+00       1.482e-01           0.018          -0.016          -1.000       8.826e-01         -0.0227
 359       7.298e+00      -9.560e+00       1.431e-01           0.000          -0.026          -1.000       8.049e-01         -0.0296
 360       6.839e+00      -9.560e+00       1.477e-01          -0.022          -0.038          -0.999       6.809e-01         -0.0305
 361       6.469e+00      -9.560e+00       1.607e-01          -0.051          -0.055          -0.997       5.177e-01         -0.0224
 362       6.210e+00      -9.560e+00       1.783e-01          -0.093          -0.081          -0.992       3.247e-01         -0.0591
 363       6.077e+00      -9.560e+00       2.021e-01          -0.379          -0.258          -0.889       1.232e-01         -0.0789
 364       6.077e+00      -9.560e+00       2.611e-01          -0.714          -0.440           0.544       2.019e-01          0.5306
 365       6.210e+00      -9.559e+00       3.432e-01          -0.346          -0.202           0.916       3.520e-01         -0.3120
 366       6.469e+00      -9.559e+00       4.098e-01          -0.178          -0.097           0.979       5.274e-01         -0.3917
 367       6.839e+00      -9.559e+00       4.605e-01          -0.102          -0.051           0.993       6.848e-01         -0.3704
 368       7.298e+00      -9.558e+00       4.962e-01          -0.056          -0.024           0.998       8.062e-01         -0.3603
 369       7.819e+00      -9.558e+00       5.152e-01          -0.018          -0.002           1.000       8.824e-01         -0.3613
 370       8.373e+00      -9.558e+00       5.140e-01           0.022           0.021           1.000       9.090e-01         -0.3616
 371       8.927e+00      -9.558e+00       4.887e-01           0.070           0.046           0.997       8.852e-01         -0.3387
 372       9.448e+00      -9.558e+00       4.397e-01           0.119           0.070           0.990       8.121e-01         -0.2733
 373       9.907e+00      -9.558e+00       3.778e-01           0.150           0.084           0.985       6.902e-01         -0.1963
 374       1.028e+01      -9.559e+00       3.173e-01           0.175           0.096           0.980       5.266e-01         -0.1278
 375       1.054e+01      -9.559e+00       2.685e-01           0.199           0.106           0.974       3.306e-01         -0.0909
 376       1.067e+01      -9.559e+00       2.351e-01           0.357           0.169           0.919       1.191e-01          0.0112
Strip 15
 377       1.000e+01      -7.912e+00       1.789e-01          -0.051          -0.048          -0.998       1.231e-01          0.0709
 378       9.860e+00      -7.912e+00       1.964e-01          -0.144          -0.085          -0.986       3.664e-01          0.1823
 379       9.580e+00      -7.911e+00       2.207e-01          -0.049          -0.045          -0.998       5.800e-01          0.2524
 380       9.180e+00      -7.912e+00       2.226e-01           0.029          -0.011          -1.000       7.630e-01          0.2207
 381       8.684e+00      -7.912e+00       1.970e-01           0.071           0.008          -0.997       9.045e-01          0.1452
 382       8.120e+00      -7.912e+00       1.558e-01           0.075           0.011          -0.997       9.923e-01          0.0561
 383       7.521e+00      -7.912e+00       1.215e-01           0.040          -0.006          -0.999       1.020e+00         -0.0057
 384       6.923e+00      -7.912e+00       1.045e-01           0.016          -0.018          -1.000       9.897e-01         -0.0243
 385       6.359e+00      -7.912e+00       1.003e-01          -0.002          -0.027          -1.000       9.026e-01         -0.0318
 386       5.862e+00      -7.912e+00       1.065e-01          -0.025          -0.040          -0.999       7.635e-01         -0.0333
 387       5.463e+00      -7.912e+00       1.214e-01          -0.054          -0.057          -0.997       5.806e-01         -0.0264
 388       5.182e+00      -7.912e+00       1.411e-01          -0.095          -0.082          -0.992       3.642e-01         -0.0665
 389       5.038e+00      -7.912e+00       1.671e-01          -0.381          -0.259          -0.888       1.383e-01         -0.0968
 390       5.038e+00      -7.912e+00       2.309e-01          -0.714          -0.440           0.545       2.260e-01          0.5390
 391       5.182e+00      -7.912e+00       3.195e-01          -0.344          -0.201           0.917       3.942e-01         -0.3023
 392       5.463e+00      -7.912e+00       3.908e-01          -0.176          -0.096           0.980       5.910e-01         -0.3857
 393       5.862e+00      -7.911e+00       4.447e-01          -0.100          -0.050           0.994       7.676e-01         -0.3663
 394       6.359e+00      -7.911e+00       4.821e-01          -0.054          -0.022           0.998       9.038e-01         -0.3572
 395       6.923e+00      -7.911e+00       5.014e-01          -0.016          -0.000           1.000       9.894e-01         -0.3589
 396       7.521e+00      -7.911e+00       4.987e-01           0.024           0.022           0.999       1.019e+00         -0.3596
 397       8.120e+00      -7.911e+00       4.700e-01           0.072           0.047           0.996       9.928e-01         -0.3371
 398       8.684e+00      -7.911e+00       4.156e-01           0.121           0.071           0.990       9.110e-01         -0.2720
 399       9.180e+00      -7.911e+00       3.476e-01           0.152           0.085           0.985       7.743e-01         -0.1955
 400       9.580e+00      -7.911e+00       2.813e-01           0.177           0.096           0.979       5.908e-01         -0.1273
 401       9.860e+00      -7.911e+00       2.278e-01           0.201           0.107           0.974       3.709e-01         -0.0907
 402       1.000e+01      -7.912e+00       1.913e-01           0.359           0.169           0.918       1.337e-01          0.0115
Strip 16
 403       9.317e+00      -6.210e+00       1.327e-01          -0.053          -0.048          -0.997       1.365e-01          0.0698
 404       9.162e+00      -6.210e+00       1.520e-01          -0.146          -0.085          -0.986       4.063e-01          0.1819
 405       8.860e+00      -6.210e+00       1.787e-01          -0.051          -0.046          -0.998       6.432e-01          0.2520
 406       8.429e+00      -6.210e+00       1.817e-01           0.027          -0.012          -1.000       8.459e-01          0.2201
 407       7.894e+00      -6.210e+00       1.552e-01           0.068           0.007          -0.998       1.003e+00          0.1442
 408       7.286e+00      -6.210e+00       1.121e-01           0.073           0.010          -0.997       1.100e+00          0.0545
 409       6.641e+00      -6.211e+00       7.635e-02           0.038          -0.007          -0.999       1.131e+00         -0.0080
 410       5.996e+00      -6.211e+00       5.941e-02           0.014          -0.019          -1.000       1.097e+00         -0.0273
 411       5.389e+00      -6.211e+00       5.614e-02          -0.004          -0.028          -1.000       1.001e+00         -0.0356
 412       4.854e+00      -6.211e+00       6.389e-02          -0.027          -0.041          -0.999       8.466e-01         -0.0384
 413       4.423e+00      -6.211e+00       8.087e-02          -0.056          -0.058          -0.997       6.438e-01         -0.0338
 414       4.121e+00      -6.211e+00       1.027e-01          -0.097          -0.083          -0.992       4.039e-01         -0.0801
 415       3.965e+00      -6.211e+00       1.311e-01          -0.382          -0.260          -0.887       1.535e-01         -0.1296
 416       3.965e+00      -6.211e+00       1.998e-01          -0.714          -0.440           0.545       2.503e-01          0.5534
 417       4.121e+00      -6.210e+00       2.949e-01          -0.342          -0.200           0.918       4.366e-01         -0.2839
 418       4.423e+00      -6.210e+00       3.712e-01          -0.174          -0.095           0.980       6.548e-01         -0.3746
 419       4.854e+00      -6.210e+00       4.283e-01          -0.098          -0.049           0.994       8.507e-01         -0.3587
 420       5.389e+00      -6.210e+00       4.676e-01          -0.052          -0.021           0.998       1.002e+00         -0.3517
 421       5.996e+00      -6.210e+00       4.871e-01          -0.014           0.001           1.000       1.097e+00         -0.3548
 422       6.641e+00      -6.210e+00       4.829e-01           0.026           0.023           0.999       1.130e+00         -0.3566
 423       7.286e+00      -6.210e+00       4.506e-01           0.074           0.048           0.996       1.101e+00         -0.3348
 424       7.894e+00      -6.210e+00       3.908e-01           0.123           0.072           0.990       1.010e+00         -0.2705
 425       8.429e+00      -6.210e+00       3.164e-01           0.154           0.086           0.984       8.588e-01         -0.1946
 426       8.860e+00      -6.210e+00       2.440e-01           0.179           0.097           0.979       6.553e-01         -0.1268
 427       9.162e+00      -6.210e+00       1.858e-01           0.203           0.107           0.973       4.115e-01         -0.0907
 428       9.317e+00      -6.210e+00       1.461e-01           0.360           0.170           0.917       1.484e-01          0.0113
Strip 17
 429       8.613e+00      -4.466e+00       8.546e-02          -0.055          -0.049          -0.997       1.497e-01          0.0683
 430       8.446e+00      -4.466e+00       1.064e-01          -0.147          -0.086          -0.985       4.458e-01          0.1811
 431       8.122e+00      -4.466e+00       1.357e-01          -0.053          -0.047          -0.997       7.054e-01          0.2512
 432       7.659e+00      -4.466e+00       1.397e-01           0.025          -0.013          -1.000       9.276e-01          0.2190
 433       7.085e+00      -4.466e+00       1.123e-01           0.067           0.006          -0.998       1.099e+00          0.1425
 434       6.432e+00      -4.467e+00       6.720e-02           0.071           0.009          -0.997       1.206e+00          0.0516
 435       5.740e+00      -4.467e+00       3.013e-02           0.036          -0.008          -0.999       1.240e+00         -0.0119
 436       5.047e+00      -4.467e+00       1.319e-02           0.012          -0.020          -1.000       1.203e+00         -0.0322
 437       4.394e+00      -4.467e+00       1.086e-02          -0.006          -0.029          -1.000       1.097e+00         -0.0416
 438       3.820e+00      -4.467e+00       2.023e-02          -0.029          -0.042          -0.999       9.285e-01         -0.0460
 439       3.357e+00      -4.467e+00       3.931e-02          -0.058          -0.059          -0.997       7.061e-01         -0.0445
 440       3.033e+00      -4.467e+00       6.331e-02          -0.099          -0.084          -0.991       4.430e-01         -0.1001
 441       2.866e+00      -4.467e+00       9.412e-02          -0.384          -0.261          -0.886       1.685e-01         -0.1799
 442       2.866e+00      -4.467e+00       1.680e-01          -0.714          -0.440           0.545       2.741e-01          0.5739
 443       3.033e+00      -4.467e+00       2.697e-01          -0.341          -0.199           0.919       4.783e-01         -0.2549
 444       3.357e+00      -4.466e+00       3.511e-01          -0.172          -0.094           0.981       7.177e-01         -0.3566
 445       3.820e+00      -4.466e+00       4.116e-01          -0.096          -0.048           0.994       9.327e-01         -0.3466
 446       4.394e+00      -4.466e+00       4.527e-01          -0.050          -0.020           0.999       1.098e+00         -0.3432
 447       5.047e+00      -4.466e+00       4.725e-01          -0.012           0.002           1.000       1.203e+00         -0.3489
 448       5.740e+00      -4.466e+00       4.667e-01           0.028           0.024           0.999       1.239e+00         -0.3527
 449       6.432e+00      -4.466e+00       4.308e-01           0.076           0.049           0.996       1.208e+00         -0.3324
 450       7.085e+00      -4.466e+00       3.654e-01           0.125           0.072           0.989       1.108e+00         -0.2692
 451       7.659e+00      -4.466e+00       2.844e-01           0.156           0.087           0.984       9.422e-01         -0.1942
 452       8.122e+00      -4.466e+00       2.059e-01           0.181           0.098           0.979       7.190e-01         -0.1269
 453       8.446e+00      -4.466e+00       1.428e-01           0.205           0.108           0.973       4.514e-01         -0.0913
 454       8.613e+00      -4.466e+00       9.985e-02           0.362           0.170           0.917       1.629e-01          0.0104
Strip 18
 455       7.897e+00      -2.692e+00       3.735e-02          -0.056          -0.050          -0.997       1.624e-01          0.0658
 456       7.718e+00      -2.692e+00       6.007e-02          -0.149          -0.087          -0.985       4.838e-01          0.1795
 457       7.371e+00      -2.692e+00       9.196e-02          -0.055          -0.048          -0.997       7.654e-01          0.2496
 458       6.876e+00      -2.692e+00       9.706e-02           0.024          -0.014          -1.000       1.006e+00          0.2167
 459       6.262e+00      -2.692e+00       6.870e-02           0.065           0.006          -0.998       1.193e+00          0.1387
 460       5.563e+00      -2.692e+00       2.157e-02           0.069           0.008          -0.998       1.308e+00          0.0460
 461       4.822e+00      -2.692e+00      -1.691e-02           0.035          -0.009          -0.999       1.345e+00         -0.0188
 462       4.081e+00      -2.692e+00      -3.384e-02           0.011          -0.021          -1.000       1.305e+00         -0.0395
 463       3.383e+00      -2.692e+00      -3.520e-02          -0.007          -0.030          -1.000       1.191e+00         -0.0492
 464       2.768e+00      -2.692e+00      -2.419e-02          -0.030          -0.043          -0.999       1.007e+00         -0.0546
 465       2.273e+00      -2.692e+00      -2.980e-03          -0.059          -0.060          -0.996       7.662e-01         -0.0565
 466       1.926e+00      -2.692e+00       2.326e-02          -0.101          -0.085          -0.991       4.808e-01         -0.1242
 467       1.747e+00      -2.692e+00       5.652e-02          -0.385          -0.261          -0.885       1.829e-01         -0.2486
 468       1.747e+00      -2.692e+00       1.355e-01          -0.713          -0.440           0.546       2.971e-01          0.6013
 469       1.926e+00      -2.692e+00       2.441e-01          -0.340          -0.199           0.919       5.185e-01         -0.2102
 470       2.273e+00      -2.692e+00       3.306e-01          -0.171          -0.093           0.981       7.783e-01         -0.3265
 471       2.768e+00      -2.692e+00       3.945e-01          -0.095          -0.047           0.994       1.012e+00         -0.3255
 472       3.383e+00      -2.692e+00       4.376e-01          -0.049          -0.019           0.999       1.192e+00         -0.3288
 473       4.081e+00      -2.692e+00       4.576e-01          -0.010           0.003           1.000       1.305e+00         -0.3400
 474       4.822e+00      -2.692e+00       4.503e-01           0.030           0.025           0.999       1.345e+00         -0.3483
 475       5.563e+00      -2.692e+00       4.106e-01           0.078           0.049           0.996       1.310e+00         -0.3316
 476       6.262e+00      -2.692e+00       3.395e-01           0.127           0.073           0.989       1.203e+00         -0.2705
 477       6.876e+00      -2.692e+00       2.518e-01           0.157           0.087           0.984       1.022e+00         -0.1962
 478       7.371e+00      -2.692e+00       1.670e-01           0.182           0.099           0.978       7.803e-01         -0.1291
 479       7.718e+00      -2.692e+00       9.896e-02           0.206           0.109           0.973       4.900e-01         -0.0937
 480       7.897e+00      -2.692e+00       5.274e-02           0.363           0.171           0.916       1.768e-01          0.0078
Strip 19
 481       7.173e+00      -8.994e-01      -1.126e-02          -0.058          -0.050          -0.997       1.744e-01          0.0622
 482       6.983e+00      -8.994e-01       1.323e-02          -0.150          -0.087          -0.985       5.194e-01          0.1773
 483       6.613e+00      -8.994e-01       4.776e-02          -0.056          -0.048          -0.997       8.217e-01          0.2455
 484       6.085e+00      -8.994e-01       5.395e-02           0.022          -0.014          -1.000       1.080e+00          0.2078
 485       5.430e+00      -8.994e-01       2.465e-02           0.064           0.005          -0.998       1.280e+00          0.1238
 486       4.685e+00      -8.995e-01      -2.454e-02           0.068           0.008          -0.998       1.404e+00          0.0282
 487       3.895e+00      -8.995e-01      -6.443e-02           0.033          -0.009          -0.999       1.444e+00         -0.0338
 488       3.105e+00      -8.995e-01      -8.135e-02           0.009          -0.022          -1.000       1.401e+00         -0.0481
 489       2.360e+00      -8.995e-01      -8.175e-02          -0.009          -0.031          -0.999       1.278e+00         -0.0512
 490       1.705e+00      -8.995e-01      -6.907e-02          -0.032          -0.044          -0.999       1.081e+00         -0.0516
 491       1.177e+00      -8.995e-01      -4.571e-02          -0.061          -0.061          -0.996       8.226e-01         -0.0518
 492       8.074e-01      -8.995e-01      -1.720e-02          -0.102          -0.086          -0.991       5.162e-01         -0.1275
 493       6.169e-01      -8.995e-01       1.852e-02          -0.386          -0.262          -0.885       1.965e-01         -0.3159
 494       6.169e-01      -8.995e-01       1.027e-01          -0.713          -0.440           0.546       3.186e-01          0.6348
 495       8.074e-01      -8.994e-01       2.183e-01          -0.339          -0.198           0.920       5.562e-01         -0.1286
 496       1.177e+00      -8.994e-01       3.099e-01          -0.169          -0.092           0.981       8.351e-01         -0.2599
 497       1.705e+00      -8.994e-01       3.773e-01          -0.093          -0.046           0.995       1.086e+00         -0.2751
 498       2.360e+00      -8.994e-01       4.223e-01          -0.047          -0.018           0.999       1.279e+00         -0.2937
 499       3.105e+00      -8.994e-01       4.426e-01          -0.009           0.003           1.000       1.401e+00         -0.3208
 500       3.895e+00      -8.993e-01       4.336e-01           0.031           0.025           0.999       1.444e+00         -0.3439
 501       4.685e+00      -8.993e-01       3.902e-01           0.079           0.050           0.996       1.407e+00         -0.3398
 502       5.430e+00      -8.994e-01       3.133e-01           0.128           0.074           0.989       1.291e+00         -0.2857
 503       6.085e+00      -8.994e-01       2.189e-01           0.159           0.088           0.983       1.098e+00         -0.2120
 504       6.613e+00      -8.994e-01       1.278e-01           0.184           0.099           0.978       8.379e-01         -0.1418
 505       6.983e+00      -8.994e-01       5.469e-02           0.207           0.109           0.972       5.262e-01         -0.1030
 506       7.173e+00      -8.994e-01       5.149e-03           0.364           0.171           0.916       1.899e-01          0.0003
Strip 20
 507       7.173e+00       8.994e-01      -1.126e-02          -0.058           0.050          -0.997       1.744e-01          0.0622
 508       6.983e+00       8.994e-01       1.323e-02          -0.150           0.087          -0.985       5.194e-01          0.1773
 509       6.613e+00       8.994e-01       4.776e-02          -0.056           0.048          -0.997       8.217e-01          0.2455
 510       6.085e+00       8.994e-01       5.395e-02           0.022           0.014          -1.000       1.080e+00          0.2078
 511       5.430e+00       8.994e-01       2.465e-02           0.064          -0.005          -0.998       1.280e+00          0.1238
 512       4.685e+00       8.995e-01      -2.454e-02           0.068          -0.008          -0.998       1.404e+00          0.0282
 513       3.895e+00       8.995e-01      -6.443e-02           0.033           0.009          -0.999       1.444e+00         -0.0338
 514       3.105e+00       8.995e-01      -8.135e-02           0.009           0.022          -1.000       1.401e+00         -0.0481
 515       2.360e+00       8.995e-01      -8.175e-02          -0.009           0.031          -0.999       1.278e+00         -0.0512
 516       1.705e+00       8.995e-01      -6.907e-02          -0.032           0.044          -0.999       1.081e+00         -0.0516
 517       1.177e+00       8.995e-01      -4.571e-02          -0.061           0.061          -0.996       8.226e-01         -0.0518
 518       8.074e-01       8.995e-01      -1.720e-02          -0.102           0.086          -0.991       5.162e-01         -0.1275
 519       6.169e-01       8.995e-01       1.852e-02          -0.386           0.262          -0.885       1.965e-01         -0.3159
 520       6.169e-01       8.995e-01       1.027e-01          -0.713           0.440           0.546       3.186e-01          0.6348
 521       8.074e-01       8.994e-01       2.183e-01          -0.339           0.198           0.920       5.562e-01         -0.1286
 522       1.177e+00       8.994e-01       3.099e-01          -0.169           0.092           0.981       8.351e-01         -0.2599
 523       1.705e+00       8.994e-01       3.773e-01          -0.093           0.046           0.995       1.086e+00         -0.2751
 524       2.360e+00       8.994e-01       4.223e-01          -0.047           0.018           0.999       1.279e+00         -0.2937
 525       3.105e+00       8.994e-01       4.426e-01          -0.009          -0.003           1.000       1.401e+00         -0.3208
 526       3.895e+00       8.993e-01       4.336e-01           0.031          -0.025           0.999       1.444e+00         -0.3439
 527       4.685e+00       8.993e-01       3.902e-01           0.079          -0.050           0.996       1.407e+00         -0.3398
 528       5.430e+00       8.994e-01       3.133e-01           0.128          -0.074           0.989       1.291e+00         -0.2857
 529       6.085e+00       8.994e-01       2.189e-01           0.159          -0.088           0.983       1.098e+00         -0.2120
 530       6.613e+00       8.994e-01       1.278e-01           0.184          -0.099           0.978       8.379e-01         -0.1418
 531       6.983e+00       8.994e-01       5.469e-02           0.207          -0.109           0.972       5.262e-01         -0.1030
 532       7.173e+00       8.994e-01       5.149e-03           0.364          -0.171           0.916       1.899e-01          0.0003
Strip 21
 533       7.897e+00       2.692e+00       3.735e-02          -0.056           0.050          -0.997       1.624e-01          0.0658
 534       7.718e+00       2.692e+00       6.007e-02          -0.149           0.087          -0.985       4.838e-01          0.1795
 535       7.371e+00       2.692e+00       9.196e-02          -0.055           0.048          -0.997       7.654e-01          0.2496
 536       6.876e+00       2.692e+00       9.706e-02           0.024           0.014          -1.000       1.006e+00          0.2167
 537       6.262e+00       2.692e+00       6.870e-02           0.065          -0.006          -0.998       1.193e+00          0.1387
 538       5.563e+00       2.692e+00       2.157e-02           0.069          -0.008          -0.998       1.308e+00          0.0460
 539       4.822e+00       2.692e+00      -1.691e-02           0.035           0.009          -0.999       1.345e+00         -0.0188
 540       4.081e+00       2.692e+00      -3.384e-02           0.011           0.021          -1.000       1.305e+00         -0.0395
 541       3.383e+00       2.692e+00      -3.520e-02          -0.007           0.030          -1.000       1.191e+00         -0.0492
 542       2.768e+00       2.692e+00      -2.419e-02          -0.030           0.043          -0.999       1.007e+00         -0.0546
 543       2.273e+00       2.692e+00      -2.980e-03          -0.059           0.060          -0.996       7.662e-01         -0.0565
 544       1.926e+00       2.692e+00       2.326e-02          -0.101           0.085          -0.991       4.808e-01         -0.1242
 545       1.747e+00       2.692e+00       5.652e-02          -0.385           0.261          -0.885       1.829e-01         -0.2486
 546       1.747e+00       2.692e+00       1.355e-01          -0.713           0.440           0.546       2.971e-01          0.6013
 547       1.926e+00       2.692e+00       2.441e-01          -0.340           0.199           0.919       5.185e-01         -0.2102
 548       2.273e+00       2.692e+00       3.306e-01          -0.171           0.093           0.981       7.783e-01         -0.3265
 549       2.768e+00       2.692e+00       3.945e-01          -0.095           0.047           0.994       1.012e+00         -0.3255
 550       3.383e+00       2.692e+00       4.376e-01          -0.049           0.019           0.999       1.192e+00         -0.3288
 551       4.081e+00       2.692e+00       4.576e-01          -0.010          -0.003           1.000       1.305e+00         -0.3400
 552       4.822e+00       2.692e+00       4.503e-01           0.030          -0.025           0.999       1.345e+00         -0.3483
 553       5.563e+00       2.692e+00       4.106e-01           0.078          -0.049           0.996       1.310e+00         -0.3316
 554       6.262e+00       2.692e+00       3.395e-01           0.127          -0.073           0.989       1.203e+00         -0.2705
 555       6.876e+00       2.692e+00       2.518e-01           0.157          -0.087           0.984       1.022e+00         -0.1962
 556       7.371e+00       2.692e+00       1.670e-01           0.182          -0.099           0.978       7.803e-01         -0.1291
 557       7.718e+00       2.692e+00       9.896e-02           0.206          -0.109           0.973       4.900e-01         -0.0937
 558       7.897e+00       2.692e+00       5.274e-02           0.363          -0.171           0.916       1.768e-01          0.0078
Strip 22
 559       8.613e+00       4.466e+00       8.546e-02          -0.055           0.049          -0.997       1.497e-01          0.0683
 560       8.446e+00       4.466e+00       1.064e-01          -0.147           0.086          -0.985       4.458e-01          0.1811
 561       8.122e+00       4.466e+00       1.357e-01          -0.053           0.047          -0.997       7.054e-01          0.2512
 562       7.659e+00       4.466e+00       1.397e-01           0.025           0.013          -1.000       9.276e-01          0.2190
 563       7.085e+00       4.466e+00       1.123e-01           0.067          -0.006          -0.998       1.099e+00          0.1425
 564       6.432e+00       4.467e+00       6.720e-02           0.071          -0.009          -0.997       1.206e+00          0.0516
 565       5.740e+00       4.467e+00       3.013e-02           0.036           0.008          -0.999       1.240e+00         -0.0119
 566       5.047e+00       4.467e+00       1.319e-02           0.012           0.020          -1.000       1.203e+00         -0.0322
 567       4.394e+00       4.467e+00       1.086e-02          -0.006           0.029          -1.000       1.097e+00         -0.0416
[...]
 852       1.326e+01       1.955e+01       4.131e-01           0.048           0.000          -0.999       2.188e-01         -0.0501
 853       1.300e+01       1.955e+01       4.026e-01           0.030           0.009          -1.000       1.994e-01         -0.0657
 854       1.276e+01       1.955e+01       3.979e-01           0.007           0.021          -1.000       1.685e-01         -0.0797
 855       1.258e+01       1.956e+01       3.989e-01          -0.022           0.037          -0.999       1.279e-01         -0.0948
 856       1.245e+01       1.955e+01       4.039e-01          -0.064           0.062          -0.996       8.007e-02         -0.1947
 857       1.238e+01       1.955e+01       4.139e-01          -0.359           0.245          -0.901       3.000e-02         -0.4025
 858       1.238e+01       1.955e+01       4.438e-01          -0.717           0.442           0.539       5.098e-02          0.6375
 859       1.245e+01       1.955e+01       4.875e-01          -0.367           0.216           0.905       8.856e-02         -0.1464
 860       1.258e+01       1.955e+01       5.251e-01          -0.205           0.114           0.972       1.318e-01         -0.2924
 861       1.276e+01       1.955e+01       5.564e-01          -0.131           0.068           0.989       1.705e-01         -0.3049
 862       1.300e+01       1.955e+01       5.815e-01          -0.086           0.041           0.995       2.003e-01         -0.3127
 863       1.326e+01       1.955e+01       5.991e-01          -0.048           0.018           0.999       2.189e-01         -0.3252
 864       1.354e+01       1.955e+01       6.069e-01          -0.008          -0.005           1.000       2.250e-01         -0.3343
 865       1.382e+01       1.955e+01       6.025e-01           0.040          -0.031           0.999       2.187e-01         -0.3190
 866       1.409e+01       1.955e+01       5.855e-01           0.090          -0.056           0.994       2.002e-01         -0.2601
 867       1.432e+01       1.955e+01       5.611e-01           0.121          -0.072           0.990       1.700e-01         -0.1877
 868       1.451e+01       1.955e+01       5.361e-01           0.147          -0.084           0.986       1.296e-01         -0.1236
 869       1.464e+01       1.955e+01       5.153e-01           0.171          -0.094           0.981       8.127e-02         -0.0907
 870       1.470e+01       1.955e+01       5.004e-01           0.334          -0.159           0.929       2.913e-02          0.0041
Strip 34
 871       1.500e+01       2.028e+01       5.142e-01          -0.014           0.033          -0.999       2.088e-02          0.0785
 872       1.493e+01       2.028e+01       5.195e-01          -0.108           0.070          -0.992       6.186e-02          0.1784
 873       1.481e+01       2.028e+01       5.255e-01          -0.013           0.030          -0.999       9.838e-02          0.2460
 874       1.464e+01       2.028e+01       5.199e-01           0.066          -0.005          -0.998       1.299e-01          0.2107
 875       1.442e+01       2.028e+01       5.008e-01           0.107          -0.025          -0.994       1.544e-01          0.1320
 876       1.418e+01       2.028e+01       4.738e-01           0.111          -0.029          -0.993       1.694e-01          0.0384
 877       1.391e+01       2.028e+01       4.492e-01           0.077          -0.013          -0.997       1.738e-01         -0.0308
 878       1.365e+01       2.028e+01       4.322e-01           0.053          -0.002          -0.999       1.684e-01         -0.0576
 879       1.341e+01       2.028e+01       4.213e-01           0.035           0.006          -0.999       1.535e-01         -0.0756
 880       1.319e+01       2.028e+01       4.160e-01           0.012           0.018          -1.000       1.296e-01         -0.0932
 881       1.302e+01       2.028e+01       4.161e-01          -0.017           0.034          -0.999       9.841e-02         -0.1146
 882       1.290e+01       2.028e+01       4.202e-01          -0.059           0.059          -0.996       6.157e-02         -0.2322
 883       1.283e+01       2.028e+01       4.292e-01          -0.356           0.243          -0.902       2.303e-02         -0.4980
 884       1.283e+01       2.028e+01       4.570e-01          -0.717           0.442           0.538       3.933e-02          0.6571
 885       1.290e+01       2.028e+01       4.979e-01          -0.371           0.218           0.903       6.831e-02         -0.1070
 886       1.302e+01       2.028e+01       5.335e-01          -0.210           0.117           0.971       1.015e-01         -0.2672
 887       1.319e+01       2.028e+01       5.634e-01          -0.136           0.071           0.988       1.313e-01         -0.2871
 888       1.341e+01       2.027e+01       5.877e-01          -0.091           0.043           0.995       1.542e-01         -0.2985
 889       1.365e+01       2.027e+01       6.051e-01          -0.053           0.020           0.998       1.684e-01         -0.3130
 890       1.391e+01       2.027e+01       6.136e-01          -0.013          -0.003           1.000       1.731e-01         -0.3232
 891       1.418e+01       2.027e+01       6.107e-01           0.036          -0.029           0.999       1.682e-01         -0.3091
 892       1.442e+01       2.027e+01       5.961e-01           0.085          -0.054           0.995       1.540e-01         -0.2519
 893       1.464e+01       2.027e+01       5.744e-01           0.117          -0.070           0.991       1.307e-01         -0.1813
 894       1.481e+01       2.027e+01       5.519e-01           0.142          -0.082           0.986       9.958e-02         -0.1190
 895       1.493e+01       2.028e+01       5.332e-01           0.167          -0.093           0.982       6.246e-02         -0.0878
 896       1.500e+01       2.028e+01       5.196e-01           0.330          -0.158           0.931       2.237e-02          0.0051
Strip 35
 897       1.523e+01       2.086e+01       5.300e-01          -0.010           0.031          -0.999       1.538e-02          0.0795
 898       1.517e+01       2.086e+01       5.347e-01          -0.104           0.069          -0.992       4.555e-02          0.1773
 899       1.506e+01       2.086e+01       5.399e-01          -0.008           0.028          -1.000       7.249e-02          0.2437
 900       1.489e+01       2.086e+01       5.340e-01           0.070          -0.007          -0.998       9.578e-02          0.2081
 901       1.469e+01       2.086e+01       5.152e-01           0.111          -0.027          -0.993       1.138e-01          0.1294
 902       1.446e+01       2.086e+01       4.888e-01           0.115          -0.031          -0.993       1.249e-01          0.0354
 903       1.422e+01       2.086e+01       4.647e-01           0.081          -0.016          -0.997       1.281e-01         -0.0353
 904       1.397e+01       2.086e+01       4.477e-01           0.057          -0.005          -0.998       1.241e-01         -0.0643
 905       1.374e+01       2.086e+01       4.365e-01           0.039           0.004          -0.999       1.131e-01         -0.0853
 906       1.354e+01       2.086e+01       4.306e-01           0.016           0.015          -1.000       9.554e-02         -0.1067
 907       1.338e+01       2.086e+01       4.300e-01          -0.013           0.032          -0.999       7.250e-02         -0.1346
 908       1.326e+01       2.086e+01       4.333e-01          -0.055           0.057          -0.997       4.535e-02         -0.2704
 909       1.320e+01       2.086e+01       4.416e-01          -0.353           0.241          -0.904       1.693e-02         -0.5951
 910       1.320e+01       2.086e+01       4.677e-01          -0.718           0.443           0.538       2.906e-02          0.6710
 911       1.326e+01       2.086e+01       5.063e-01          -0.374           0.220           0.901       5.045e-02         -0.0711
 912       1.338e+01       2.086e+01       5.402e-01          -0.213           0.119           0.970       7.493e-02         -0.2435
 913       1.354e+01       2.086e+01       5.690e-01          -0.140           0.074           0.987       9.685e-02         -0.2692
 914       1.374e+01       2.086e+01       5.927e-01          -0.095           0.046           0.994       1.137e-01         -0.2825
 915       1.397e+01       2.086e+01       6.100e-01          -0.057           0.023           0.998       1.242e-01         -0.2964
 916       1.422e+01       2.086e+01       6.190e-01          -0.017          -0.001           1.000       1.276e-01         -0.3056
 917       1.446e+01       2.086e+01       6.173e-01           0.031          -0.027           0.999       1.239e-01         -0.2916
 918       1.469e+01       2.086e+01       6.046e-01           0.081          -0.052           0.995       1.134e-01         -0.2364
 919       1.489e+01       2.086e+01       5.851e-01           0.112          -0.068           0.991       9.622e-02         -0.1691
 920       1.506e+01       2.086e+01       5.647e-01           0.138          -0.080           0.987       7.332e-02         -0.1106
 921       1.517e+01       2.086e+01       5.476e-01           0.163          -0.091           0.982       4.598e-02         -0.0830
 922       1.523e+01       2.086e+01       5.351e-01           0.327          -0.157           0.932       1.645e-02          0.0073
Strip 36
 923       1.541e+01       2.130e+01       5.420e-01          -0.006           0.030          -1.000       1.052e-02          0.0744
 924       1.535e+01       2.130e+01       5.463e-01          -0.100           0.067          -0.993       3.113e-02          0.1690
 925       1.525e+01       2.130e+01       5.508e-01          -0.005           0.027          -1.000       4.956e-02          0.2340
 926       1.509e+01       2.130e+01       5.446e-01           0.074          -0.009          -0.997       6.551e-02          0.1995
 927       1.490e+01       2.130e+01       5.260e-01           0.115          -0.029          -0.993       7.786e-02          0.1237
 928       1.468e+01       2.130e+01       5.002e-01           0.119          -0.033          -0.992       8.544e-02          0.0327
 929       1.445e+01       2.130e+01       4.764e-01           0.085          -0.017          -0.996       8.763e-02         -0.0363
 930       1.421e+01       2.130e+01       4.594e-01           0.061          -0.007          -0.998       8.491e-02         -0.0659
 931       1.399e+01       2.130e+01       4.479e-01           0.043           0.002          -0.999       7.734e-02         -0.0905
 932       1.380e+01       2.130e+01       4.417e-01           0.020           0.013          -1.000       6.532e-02         -0.1174
 933       1.365e+01       2.130e+01       4.406e-01          -0.009           0.029          -1.000       4.957e-02         -0.1526
 934       1.354e+01       2.130e+01       4.433e-01          -0.051           0.055          -0.997       3.100e-02         -0.3057
 935       1.348e+01       2.130e+01       4.509e-01          -0.350           0.240          -0.906       1.155e-02         -0.6786
 936       1.348e+01       2.130e+01       4.758e-01          -0.718           0.443           0.537       1.992e-02          0.6737
 937       1.354e+01       2.130e+01       5.127e-01          -0.376           0.222           0.900       3.456e-02         -0.0484
 938       1.365e+01       2.130e+01       5.453e-01          -0.217           0.121           0.969       5.129e-02         -0.2272
 939       1.380e+01       2.130e+01       5.732e-01          -0.143           0.076           0.987       6.627e-02         -0.2530
 940       1.399e+01       2.130e+01       5.964e-01          -0.098           0.048           0.994       7.778e-02         -0.2608
 941       1.421e+01       2.130e+01       6.137e-01          -0.061           0.025           0.998       8.492e-02         -0.2675
 942       1.445e+01       2.130e+01       6.231e-01          -0.020           0.001           1.000       8.725e-02         -0.2722
 943       1.468e+01       2.130e+01       6.224e-01           0.028          -0.025           0.999       8.471e-02         -0.2586
 944       1.490e+01       2.130e+01       6.110e-01           0.078          -0.051           0.996       7.750e-02         -0.2085
 945       1.509e+01       2.130e+01       5.932e-01           0.109          -0.066           0.992       6.575e-02         -0.1489
 946       1.525e+01       2.130e+01       5.744e-01           0.135          -0.079           0.988       5.010e-02         -0.0990
 947       1.535e+01       2.130e+01       5.585e-01           0.159          -0.090           0.983       3.141e-02         -0.0798
 948       1.541e+01       2.130e+01       5.468e-01           0.324          -0.156           0.933       1.123e-02          0.0065
Strip 37
 949       1.553e+01       2.160e+01       5.500e-01          -0.004           0.029          -1.000       6.118e-03          0.0440
 950       1.548e+01       2.160e+01       5.540e-01          -0.098           0.066          -0.993       1.810e-02          0.1309
 951       1.537e+01       2.160e+01       5.581e-01          -0.002           0.026          -1.000       2.883e-02          0.1940
 952       1.522e+01       2.160e+01       5.517e-01           0.076          -0.010          -0.997       3.812e-02          0.1679
 953       1.503e+01       2.160e+01       5.333e-01           0.117          -0.030          -0.993       4.531e-02          0.1048
 954       1.482e+01       2.160e+01       5.078e-01           0.121          -0.034          -0.992       4.973e-02          0.0258
 955       1.460e+01       2.160e+01       4.843e-01           0.087          -0.019          -0.996       5.100e-02         -0.0345
 956       1.437e+01       2.160e+01       4.672e-01           0.063          -0.008          -0.998       4.941e-02         -0.0587
 957       1.416e+01       2.160e+01       4.556e-01           0.045           0.000          -0.999       4.500e-02         -0.0815
 958       1.398e+01       2.160e+01       4.491e-01           0.023           0.012          -1.000       3.801e-02         -0.1131
 959       1.383e+01       2.160e+01       4.476e-01          -0.006           0.028          -1.000       2.884e-02         -0.1604
 960       1.372e+01       2.160e+01       4.500e-01          -0.049           0.053          -0.997       1.803e-02         -0.3339
 961       1.367e+01       2.160e+01       4.572e-01          -0.348           0.239          -0.907       6.712e-03         -0.7179
 962       1.367e+01       2.160e+01       4.812e-01          -0.718           0.443           0.537       1.161e-02          0.6383
 963       1.372e+01       2.160e+01       5.170e-01          -0.378           0.223           0.899       2.014e-02         -0.0678
 964       1.383e+01       2.160e+01       5.487e-01          -0.219           0.123           0.968       2.987e-02         -0.2284
 965       1.398e+01       2.160e+01       5.761e-01          -0.146           0.077           0.986       3.858e-02         -0.2295
 966       1.416e+01       2.160e+01       5.989e-01          -0.101           0.049           0.994       4.527e-02         -0.2170
 967       1.437e+01       2.160e+01       6.162e-01          -0.063           0.026           0.998       4.941e-02         -0.2140
 968       1.460e+01       2.160e+01       6.259e-01          -0.023           0.003           1.000       5.076e-02         -0.2168
 969       1.482e+01       2.160e+01       6.257e-01           0.025          -0.024           0.999       4.928e-02         -0.2082
 970       1.503e+01       2.160e+01       6.154e-01           0.075          -0.049           0.996       4.507e-02         -0.1708
 971       1.522e+01       2.160e+01       5.986e-01           0.106          -0.065           0.992       3.824e-02         -0.1289
 972       1.537e+01       2.160e+01       5.809e-01           0.132          -0.078           0.988       2.913e-02         -0.0985
 973       1.548e+01       2.160e+01       5.658e-01           0.157          -0.089           0.984       1.827e-02         -0.0988
 974       1.553e+01       2.160e+01       5.547e-01           0.322          -0.155           0.934       6.528e-03         -0.0183
Strip 38
 975       1.559e+01       2.175e+01       5.540e-01          -0.002           0.028          -1.000       2.007e-03          0.0027
 976       1.554e+01       2.175e+01       5.579e-01          -0.096           0.066          -0.993       5.938e-03          0.0669
 977       1.543e+01       2.175e+01       5.618e-01          -0.001           0.025          -1.000       9.458e-03          0.1132
 978       1.529e+01       2.175e+01       5.553e-01           0.078          -0.010          -0.997       1.251e-02          0.0981
 979       1.510e+01       2.175e+01       5.369e-01           0.119          -0.031          -0.992       1.487e-02          0.0605
 980       1.490e+01       2.175e+01       5.116e-01           0.123          -0.035          -0.992       1.632e-02          0.0090
 981       1.468e+01       2.175e+01       4.882e-01           0.089          -0.019          -0.996       1.673e-02         -0.0332
 982       1.445e+01       2.175e+01       4.712e-01           0.065          -0.009          -0.998       1.621e-02         -0.0496
 983       1.425e+01       2.175e+01       4.595e-01           0.047          -0.001          -0.999       1.476e-02         -0.0653
 984       1.406e+01       2.175e+01       4.528e-01           0.024           0.011          -1.000       1.247e-02         -0.0882
 985       1.392e+01       2.175e+01       4.511e-01          -0.005           0.027          -1.000       9.459e-03         -0.1277
 986       1.381e+01       2.175e+01       4.534e-01          -0.047           0.052          -0.998       5.914e-03         -0.3079
 987       1.376e+01       2.175e+01       4.604e-01          -0.347           0.238          -0.907       2.200e-03         -0.6033
 988       1.376e+01       2.175e+01       4.839e-01          -0.718           0.443           0.537       3.811e-03          0.5849
 989       1.381e+01       2.175e+01       5.191e-01          -0.379           0.223           0.898       6.611e-03         -0.1254
 990       1.392e+01       2.175e+01       5.504e-01          -0.220           0.123           0.968       9.803e-03         -0.2008
 991       1.406e+01       2.175e+01       5.775e-01          -0.147           0.078           0.986       1.266e-02         -0.1739
 992       1.425e+01       2.174e+01       6.002e-01          -0.102           0.050           0.994       1.485e-02         -0.1590
 993       1.445e+01       2.174e+01       6.175e-01          -0.065           0.027           0.998       1.621e-02         -0.1557
 994       1.468e+01       2.174e+01       6.272e-01          -0.025           0.003           1.000       1.665e-02         -0.1555
 995       1.490e+01       2.174e+01       6.274e-01           0.024          -0.023           0.999       1.616e-02         -0.1457
 996       1.510e+01       2.174e+01       6.175e-01           0.074          -0.049           0.996       1.478e-02         -0.1159
 997       1.529e+01       2.174e+01       6.014e-01           0.105          -0.065           0.992       1.254e-02         -0.0898
 998       1.543e+01       2.175e+01       5.841e-01           0.131          -0.077           0.988       9.554e-03         -0.0823
 999       1.554e+01       2.175e+01       5.695e-01           0.155          -0.088           0.984       5.990e-03         -0.1072
1000       1.559e+01       2.175e+01       5.586e-01           0.321          -0.154           0.934       2.140e-03         -0.0371










