xflr5 v6.57

test
T1-10.0 m/s-Panel-150000.0kg-x0.0m-Inviscid
QInf  =   10.000000 m/s
Alpha =   10.000000
Beta  =    0.000°
Phi   =    0.000°
Ctrl  =    0.000
CL    =    1.115382
Cy    =   -0.000000
Cd    =    0.038375     ICd   =    0.038375     PCd   =    0.000000
Cl   = -1.1751e-10
Cm   =    -1.76518
ICn   =   -0.000000     PCn   =   -0.000000 
XCP   =    7.662540     YCP   =    0.000000     ZCP   =    0.369181  
XNP   =    0.000000
Bending = 53478.676650

Main Wing
  y-span        Chord      Ai         Cl        PCd          ICd        CmGeom    CmAirf@chord/4    XTrtop    XTrBot      XCP       BM
  -21.7528     1.8586    -6.860    0.387089    0.000000    0.046560   -3.293893    0.000206     0.0000    0.0000    0.2496    0.0000
  -21.6042     1.8927    -5.375    0.637736    0.000000    0.059984   -5.091324   -0.027728     0.0000    0.0000    0.2895    0.4943
  -21.3080     1.9608    -4.235    0.851744    0.000000    0.063043   -6.386017   -0.040521     0.0000    0.0000    0.2933    6.4267
  -20.8663     2.0624    -3.277    1.006465    0.000000    0.057590   -7.067249   -0.057640     0.0000    0.0000    0.3025   32.2104
  -20.2820     2.1967    -2.519    1.107742    0.000000    0.048702   -7.149330   -0.070392     0.0000    0.0000    0.3085   105.0196
  -19.5592     2.3629    -1.985    1.169160    0.000000    0.040483   -6.814616   -0.077785     0.0000    0.0000    0.3113   266.5992
  -18.7028     2.5598    -1.663    1.204096    0.000000    0.034924   -6.244709   -0.081523     0.0000    0.0000    0.3124   574.2476
  -17.7186     2.7861    -1.506    1.221877    0.000000    0.032085   -5.568079   -0.083272     0.0000    0.0000    0.3128   1101.4242
  -16.6134     3.0402    -1.462    1.228015    0.000000    0.031300   -4.863737   -0.084015     0.0000    0.0000    0.3131   1937.8948
  -15.3947     3.3204    -1.493    1.225589    0.000000    0.031893   -4.177305   -0.084263     0.0000    0.0000    0.3134   3189.0648
  -14.0708     3.6248    -1.573    1.216275    0.000000    0.033345   -3.533578   -0.084282     0.0000    0.0000    0.3140   4974.1678
  -12.6508     3.9513    -1.686    1.200938    0.000000    0.035275   -2.944798   -0.084207     0.0000    0.0000    0.3148   7423.0730
  -11.1444     4.2976    -1.819    1.179949    0.000000    0.037404   -2.415586   -0.084135     0.0000    0.0000    0.3160   10671.5852
   -9.5619     4.6615    -1.965    1.153306    0.000000    0.039488   -1.946242   -0.084143     0.0000    0.0000    0.3178   14855.2401
   -7.9141     5.0404    -2.114    1.120679    0.000000    0.041268   -1.534676   -0.084362     0.0000    0.0000    0.3202   20101.7009
   -6.2122     5.4317    -2.252    1.081371    0.000000    0.042382   -1.177814   -0.085075     0.0000    0.0000    0.3237   26521.9697
   -4.4678     5.8327    -2.347    1.034227    0.000000    0.042196   -0.872676   -0.086972     0.0000    0.0000    0.3293   34200.7010
   -2.6930     6.2408    -2.323    0.977496    0.000000    0.039346   -0.617748   -0.091903     0.0000    0.0000    0.3396   43185.9427
   -0.8997     6.6531    -1.896    0.907236    0.000000    0.029085   -0.415523   -0.106046     0.0000    0.0000    0.3636   53478.6766
    0.8997     6.6531    -1.896    0.907236    0.000000    0.029085   -0.415523   -0.106046     0.0000    0.0000    0.3636   53478.6766
    2.6930     6.2408    -2.323    0.977496    0.000000    0.039346   -0.617748   -0.091903     0.0000    0.0000    0.3396   43185.9427
    4.4678     5.8327    -2.347    1.034227    0.000000    0.042196   -0.872676   -0.086972     0.0000    0.0000    0.3293   34200.7010
    6.2122     5.4317    -2.252    1.081371    0.000000    0.042382   -1.177814   -0.085075     0.0000    0.0000    0.3237   26521.9697
    7.9141     5.0404    -2.114    1.120679    0.000000    0.041268   -1.534676   -0.084362     0.0000    0.0000    0.3202   20101.7009
    9.5619     4.6615    -1.965    1.153306    0.000000    0.039488   -1.946242   -0.084143     0.0000    0.0000    0.3178   14855.2401
   11.1444     4.2976    -1.819    1.179949    0.000000    0.037404   -2.415586   -0.084135     0.0000    0.0000    0.3160   10671.5852
   12.6508     3.9513    -1.686    1.200938    0.000000    0.035275   -2.944798   -0.084207     0.0000    0.0000    0.3148   7423.0730
   14.0708     3.6248    -1.573    1.216275    0.000000    0.033345   -3.533578   -0.084282     0.0000    0.0000    0.3140   4974.1678
   15.3947     3.3204    -1.493    1.225589    0.000000    0.031893   -4.177305   -0.084263     0.0000    0.0000    0.3134   3189.0648
   16.6134     3.0402    -1.462    1.228015    0.000000    0.031300   -4.863737   -0.084015     0.0000    0.0000    0.3131   1937.8948
   17.7186     2.7861    -1.506    1.221877    0.000000    0.032085   -5.568079   -0.083272     0.0000    0.0000    0.3128   1101.4242
   18.7028     2.5598    -1.663    1.204096    0.000000    0.034924   -6.244709   -0.081523     0.0000    0.0000    0.3124   574.2476
   19.5592     2.3629    -1.985    1.169160    0.000000    0.040483   -6.814616   -0.077785     0.0000    0.0000    0.3113   266.5992
   20.2820     2.1967    -2.519    1.107742    0.000000    0.048702   -7.149330   -0.070392     0.0000    0.0000    0.3085   105.0196
   20.8663     2.0624    -3.277    1.006465    0.000000    0.057590   -7.067249   -0.057640     0.0000    0.0000    0.3025   32.2104
   21.3080     1.9608    -4.235    0.851744    0.000000    0.063043   -6.386017   -0.040521     0.0000    0.0000    0.2933    6.4267
   21.6042     1.8927    -5.375    0.637736    0.000000    0.059984   -5.091324   -0.027728     0.0000    0.0000    0.2895    0.4943
   21.7528     1.8586    -6.860    0.387089    0.000000    0.046560   -3.293893    0.000206     0.0000    0.0000    0.2496    0.0000


Main Wing Cp Coefficients
 Panel     CtrlPt.x        CtrlPt.y        CtrlPt.z       Nx      Ny       Nz        Area       Cp
Main WingCp Coefficients
Strip 1
  13       1.559e+01      -2.175e+01       5.540e-01          -0.002          -0.028          -1.000       2.007e-03         -0.8116
  14       1.554e+01      -2.175e+01       5.579e-01          -0.096          -0.066          -0.993       5.938e-03         -0.8004
  15       1.543e+01      -2.175e+01       5.618e-01          -0.001          -0.025          -1.000       9.458e-03         -0.7477
  16       1.529e+01      -2.175e+01       5.553e-01           0.078           0.010          -0.997       1.251e-02         -0.6314
  17       1.510e+01      -2.175e+01       5.369e-01           0.119           0.031          -0.992       1.487e-02         -0.4916
  18       1.490e+01      -2.175e+01       5.116e-01           0.123           0.035          -0.992       1.632e-02         -0.3719
  19       1.468e+01      -2.175e+01       4.882e-01           0.089           0.019          -0.996       1.673e-02         -0.2866
  20       1.445e+01      -2.175e+01       4.712e-01           0.065           0.009          -0.998       1.621e-02         -0.2184
  21       1.425e+01      -2.175e+01       4.595e-01           0.047           0.001          -0.999       1.476e-02         -0.1541
  22       1.406e+01      -2.175e+01       4.528e-01           0.024          -0.011          -1.000       1.247e-02         -0.0726
  23       1.392e+01      -2.175e+01       4.511e-01          -0.005          -0.027          -1.000       9.459e-03          0.0669
  24       1.381e+01      -2.175e+01       4.534e-01          -0.047          -0.052          -0.998       5.914e-03          0.3284
  25       1.376e+01      -2.175e+01       4.604e-01          -0.347          -0.238          -0.907       2.200e-03          0.3604
  26       1.376e+01      -2.175e+01       4.839e-01          -0.718          -0.443           0.537       3.811e-03         -2.3629
  27       1.381e+01      -2.175e+01       5.191e-01          -0.379          -0.223           0.898       6.611e-03         -1.7440
  28       1.392e+01      -2.175e+01       5.504e-01          -0.220          -0.123           0.968       9.803e-03         -0.9627
  29       1.406e+01      -2.175e+01       5.775e-01          -0.147          -0.078           0.986       1.266e-02         -0.6793
  30       1.425e+01      -2.174e+01       6.002e-01          -0.102          -0.050           0.994       1.485e-02         -0.5863
  31       1.445e+01      -2.174e+01       6.175e-01          -0.065          -0.027           0.998       1.621e-02         -0.5629
  32       1.468e+01      -2.174e+01       6.272e-01          -0.025          -0.003           1.000       1.665e-02         -0.5695
  33       1.490e+01      -2.174e+01       6.274e-01           0.024           0.023           0.999       1.616e-02         -0.5903
  34       1.510e+01      -2.174e+01       6.175e-01           0.074           0.049           0.996       1.478e-02         -0.6297
  35       1.529e+01      -2.174e+01       6.014e-01           0.105           0.065           0.992       1.254e-02         -0.7311
  36       1.543e+01      -2.175e+01       5.841e-01           0.131           0.077           0.988       9.554e-03         -0.8555
  37       1.554e+01      -2.175e+01       5.695e-01           0.155           0.088           0.984       5.990e-03         -0.9189
  38       1.559e+01      -2.175e+01       5.586e-01           0.321           0.154           0.934       2.140e-03         -0.7373
Strip 2
  39       1.553e+01      -2.160e+01       5.500e-01          -0.004          -0.029          -1.000       6.118e-03         -0.3773
  40       1.548e+01      -2.160e+01       5.540e-01          -0.098          -0.066          -0.993       1.810e-02         -0.3044
  41       1.537e+01      -2.160e+01       5.581e-01          -0.002          -0.026          -1.000       2.883e-02         -0.2489
  42       1.522e+01      -2.160e+01       5.517e-01           0.076           0.010          -0.997       3.812e-02         -0.2110
  43       1.503e+01      -2.160e+01       5.333e-01           0.117           0.030          -0.993       4.531e-02         -0.1771
  44       1.482e+01      -2.160e+01       5.078e-01           0.121           0.034          -0.992       4.973e-02         -0.1537
  45       1.460e+01      -2.160e+01       4.843e-01           0.087           0.019          -0.996       5.100e-02         -0.1256
  46       1.437e+01      -2.160e+01       4.672e-01           0.063           0.008          -0.998       4.941e-02         -0.0779
  47       1.416e+01      -2.160e+01       4.556e-01           0.045          -0.000          -0.999       4.500e-02         -0.0125
  48       1.398e+01      -2.160e+01       4.491e-01           0.023          -0.012          -1.000       3.801e-02          0.0916
  49       1.383e+01      -2.160e+01       4.476e-01          -0.006          -0.028          -1.000       2.884e-02          0.2716
  50       1.372e+01      -2.160e+01       4.500e-01          -0.049          -0.053          -0.997       1.803e-02          0.5201
  51       1.367e+01      -2.160e+01       4.572e-01          -0.348          -0.239          -0.907       6.712e-03          0.0508
  52       1.367e+01      -2.160e+01       4.812e-01          -0.718          -0.443           0.537       1.161e-02         -3.4425
  53       1.372e+01      -2.160e+01       5.170e-01          -0.378          -0.223           0.899       2.014e-02         -2.3413
  54       1.383e+01      -2.160e+01       5.487e-01          -0.219          -0.123           0.968       2.987e-02         -1.3124
  55       1.398e+01      -2.160e+01       5.761e-01          -0.146          -0.077           0.986       3.858e-02         -0.8583
  56       1.416e+01      -2.160e+01       5.989e-01          -0.101          -0.049           0.994       4.527e-02         -0.6621
  57       1.437e+01      -2.160e+01       6.162e-01          -0.063          -0.026           0.998       4.941e-02         -0.5840
  58       1.460e+01      -2.160e+01       6.259e-01          -0.023          -0.003           1.000       5.076e-02         -0.5583
  59       1.482e+01      -2.160e+01       6.257e-01           0.025           0.024           0.999       4.928e-02         -0.5446
  60       1.503e+01      -2.160e+01       6.154e-01           0.075           0.049           0.996       4.507e-02         -0.5196
  61       1.522e+01      -2.160e+01       5.986e-01           0.106           0.065           0.992       3.824e-02         -0.5129
  62       1.537e+01      -2.160e+01       5.809e-01           0.132           0.078           0.988       2.913e-02         -0.5084
  63       1.548e+01      -2.160e+01       5.658e-01           0.157           0.089           0.984       1.827e-02         -0.5073
  64       1.553e+01      -2.160e+01       5.547e-01           0.322           0.155           0.934       6.528e-03         -0.3267
Strip 3
  65       1.541e+01      -2.130e+01       5.420e-01          -0.006          -0.030          -1.000       1.052e-02         -0.0309
  66       1.535e+01      -2.130e+01       5.463e-01          -0.100          -0.067          -0.993       3.113e-02          0.0814
  67       1.525e+01      -2.130e+01       5.508e-01          -0.005          -0.027          -1.000       4.956e-02          0.1302
  68       1.509e+01      -2.130e+01       5.446e-01           0.074           0.009          -0.997       6.551e-02          0.1096
  69       1.490e+01      -2.130e+01       5.260e-01           0.115           0.029          -0.993       7.786e-02          0.0709
  70       1.468e+01      -2.130e+01       5.002e-01           0.119           0.033          -0.992       8.544e-02          0.0370
  71       1.445e+01      -2.130e+01       4.764e-01           0.085           0.017          -0.996       8.763e-02          0.0399
  72       1.421e+01      -2.130e+01       4.594e-01           0.061           0.007          -0.998       8.491e-02          0.0873
  73       1.399e+01      -2.130e+01       4.479e-01           0.043          -0.002          -0.999       7.734e-02          0.1678
  74       1.380e+01      -2.130e+01       4.417e-01           0.020          -0.013          -1.000       6.532e-02          0.2908
  75       1.365e+01      -2.130e+01       4.406e-01          -0.009          -0.029          -1.000       4.957e-02          0.4652
  76       1.354e+01      -2.130e+01       4.433e-01          -0.051          -0.055          -0.997       3.100e-02          0.6498
  77       1.348e+01      -2.130e+01       4.509e-01          -0.350          -0.240          -0.906       1.155e-02         -0.2866
  78       1.348e+01      -2.130e+01       4.758e-01          -0.718          -0.443           0.537       1.992e-02         -4.4683
  79       1.354e+01      -2.130e+01       5.127e-01          -0.376          -0.222           0.900       3.456e-02         -2.7920
  80       1.365e+01      -2.130e+01       5.453e-01          -0.217          -0.121           0.969       5.129e-02         -1.5742
  81       1.380e+01      -2.130e+01       5.732e-01          -0.143          -0.076           0.987       6.627e-02         -1.0407
  82       1.399e+01      -2.130e+01       5.964e-01          -0.098          -0.048           0.994       7.778e-02         -0.7770
  83       1.421e+01      -2.130e+01       6.137e-01          -0.061          -0.025           0.998       8.492e-02         -0.6340
  84       1.445e+01      -2.130e+01       6.231e-01          -0.020          -0.001           1.000       8.725e-02         -0.5480
  85       1.468e+01      -2.130e+01       6.224e-01           0.028           0.025           0.999       8.471e-02         -0.4704
  86       1.490e+01      -2.130e+01       6.110e-01           0.078           0.051           0.996       7.750e-02         -0.3697
  87       1.509e+01      -2.130e+01       5.932e-01           0.109           0.066           0.992       6.575e-02         -0.2768
  88       1.525e+01      -2.130e+01       5.744e-01           0.135           0.079           0.988       5.010e-02         -0.1974
  89       1.535e+01      -2.130e+01       5.585e-01           0.159           0.090           0.983       3.141e-02         -0.1563
  90       1.541e+01      -2.130e+01       5.468e-01           0.324           0.156           0.933       1.123e-02          0.0118
Strip 4
  91       1.523e+01      -2.086e+01       5.300e-01          -0.010          -0.031          -0.999       1.538e-02          0.0394
  92       1.517e+01      -2.086e+01       5.347e-01          -0.104          -0.069          -0.992       4.555e-02          0.1682
  93       1.506e+01      -2.086e+01       5.399e-01          -0.008          -0.028          -1.000       7.249e-02          0.2274
  94       1.489e+01      -2.086e+01       5.340e-01           0.070           0.007          -0.998       9.578e-02          0.2069
  95       1.469e+01      -2.086e+01       5.152e-01           0.111           0.027          -0.993       1.138e-01          0.1642
  96       1.446e+01      -2.086e+01       4.888e-01           0.115           0.031          -0.993       1.249e-01          0.1283
  97       1.422e+01      -2.086e+01       4.647e-01           0.081           0.016          -0.997       1.281e-01          0.1343
  98       1.397e+01      -2.086e+01       4.477e-01           0.057           0.005          -0.998       1.241e-01          0.1870
  99       1.374e+01      -2.086e+01       4.365e-01           0.039          -0.004          -0.999       1.131e-01          0.2695
 100       1.354e+01      -2.086e+01       4.306e-01           0.016          -0.015          -1.000       9.554e-02          0.3859
 101       1.338e+01      -2.086e+01       4.300e-01          -0.013          -0.032          -0.999       7.250e-02          0.5431
 102       1.326e+01      -2.086e+01       4.333e-01          -0.055          -0.057          -0.997       4.535e-02          0.6822
 103       1.320e+01      -2.086e+01       4.416e-01          -0.353          -0.241          -0.904       1.693e-02         -0.6421
 104       1.320e+01      -2.086e+01       4.677e-01          -0.718          -0.443           0.538       2.906e-02         -5.2968
 105       1.326e+01      -2.086e+01       5.063e-01          -0.374          -0.220           0.901       5.045e-02         -3.1431
 106       1.338e+01      -2.086e+01       5.402e-01          -0.213          -0.119           0.970       7.493e-02         -1.7618
 107       1.354e+01      -2.086e+01       5.690e-01          -0.140          -0.074           0.987       9.685e-02         -1.1778
 108       1.374e+01      -2.086e+01       5.927e-01          -0.095          -0.046           0.994       1.137e-01         -0.8888
 109       1.397e+01      -2.086e+01       6.100e-01          -0.057          -0.023           0.998       1.242e-01         -0.7227
 110       1.422e+01      -2.086e+01       6.190e-01          -0.017           0.001           1.000       1.276e-01         -0.6106
 111       1.446e+01      -2.086e+01       6.173e-01           0.031           0.027           0.999       1.239e-01         -0.5054
 112       1.469e+01      -2.086e+01       6.046e-01           0.081           0.052           0.995       1.134e-01         -0.3775
 113       1.489e+01      -2.086e+01       5.851e-01           0.112           0.068           0.991       9.622e-02         -0.2587
 114       1.506e+01      -2.086e+01       5.647e-01           0.138           0.080           0.987       7.332e-02         -0.1584
 115       1.517e+01      -2.086e+01       5.476e-01           0.163           0.091           0.982       4.598e-02         -0.1019
 116       1.523e+01      -2.086e+01       5.351e-01           0.327           0.157           0.932       1.645e-02          0.0644
Strip 5
 117       1.500e+01      -2.028e+01       5.142e-01          -0.014          -0.033          -0.999       2.088e-02          0.0637
 118       1.493e+01      -2.028e+01       5.195e-01          -0.108          -0.070          -0.992       6.186e-02          0.2017
 119       1.481e+01      -2.028e+01       5.255e-01          -0.013          -0.030          -0.999       9.838e-02          0.2683
 120       1.464e+01      -2.028e+01       5.199e-01           0.066           0.005          -0.998       1.299e-01          0.2522
 121       1.442e+01      -2.028e+01       5.008e-01           0.107           0.025          -0.994       1.544e-01          0.2127
 122       1.418e+01      -2.028e+01       4.738e-01           0.111           0.029          -0.993       1.694e-01          0.1804
 123       1.391e+01      -2.028e+01       4.492e-01           0.077           0.013          -0.997       1.738e-01          0.1896
 124       1.365e+01      -2.028e+01       4.322e-01           0.053           0.002          -0.999       1.684e-01          0.2428
 125       1.341e+01      -2.028e+01       4.213e-01           0.035          -0.006          -0.999       1.535e-01          0.3228
 126       1.319e+01      -2.028e+01       4.160e-01           0.012          -0.018          -1.000       1.296e-01          0.4338
 127       1.302e+01      -2.028e+01       4.161e-01          -0.017          -0.034          -0.999       9.841e-02          0.5819
 128       1.290e+01      -2.028e+01       4.202e-01          -0.059          -0.059          -0.996       6.157e-02          0.6887
 129       1.283e+01      -2.028e+01       4.292e-01          -0.356          -0.243          -0.902       2.303e-02         -0.9311
 130       1.283e+01      -2.028e+01       4.570e-01          -0.717          -0.442           0.538       3.933e-02         -5.9104
 131       1.290e+01      -2.028e+01       4.979e-01          -0.371          -0.218           0.903       6.831e-02         -3.4029
 132       1.302e+01      -2.028e+01       5.335e-01          -0.210          -0.117           0.971       1.015e-01         -1.8908
 133       1.319e+01      -2.028e+01       5.634e-01          -0.136          -0.071           0.988       1.313e-01         -1.2678
 134       1.341e+01      -2.027e+01       5.877e-01          -0.091          -0.043           0.995       1.542e-01         -0.9630
 135       1.365e+01      -2.027e+01       6.051e-01          -0.053          -0.020           0.998       1.684e-01         -0.7871
 136       1.391e+01      -2.027e+01       6.136e-01          -0.013           0.003           1.000       1.731e-01         -0.6648
 137       1.418e+01      -2.027e+01       6.107e-01           0.036           0.029           0.999       1.682e-01         -0.5469
 138       1.442e+01      -2.027e+01       5.961e-01           0.085           0.054           0.995       1.540e-01         -0.4041
 139       1.464e+01      -2.027e+01       5.744e-01           0.117           0.070           0.991       1.307e-01         -0.2710
 140       1.481e+01      -2.027e+01       5.519e-01           0.142           0.082           0.986       9.958e-02         -0.1590
 141       1.493e+01      -2.028e+01       5.332e-01           0.167           0.093           0.982       6.246e-02         -0.0922
 142       1.500e+01      -2.028e+01       5.196e-01           0.330           0.158           0.931       2.237e-02          0.0760
Strip 6
 143       1.470e+01      -1.955e+01       4.946e-01          -0.019          -0.035          -0.999       2.714e-02          0.0750
 144       1.464e+01      -1.955e+01       5.006e-01          -0.113          -0.072          -0.991       8.045e-02          0.2185
 145       1.451e+01      -1.955e+01       5.077e-01          -0.017          -0.032          -0.999       1.279e-01          0.2895
 146       1.432e+01      -1.955e+01       5.026e-01           0.061           0.003          -0.998       1.688e-01          0.2767
 147       1.409e+01      -1.955e+01       4.830e-01           0.102           0.023          -0.994       2.005e-01          0.2398
 148       1.382e+01      -1.955e+01       4.552e-01           0.107           0.027          -0.994       2.200e-01          0.2100
 149       1.354e+01      -1.955e+01       4.301e-01           0.072           0.011          -0.997       2.258e-01          0.2207
 150       1.326e+01      -1.955e+01       4.131e-01           0.048          -0.000          -0.999       2.188e-01          0.2737
 151       1.300e+01      -1.955e+01       4.026e-01           0.030          -0.009          -1.000       1.994e-01          0.3520
 152       1.276e+01      -1.955e+01       3.979e-01           0.007          -0.021          -1.000       1.685e-01          0.4603
 153       1.258e+01      -1.956e+01       3.989e-01          -0.022          -0.037          -0.999       1.279e-01          0.6034
 154       1.245e+01      -1.955e+01       4.039e-01          -0.064          -0.062          -0.996       8.007e-02          0.6878
 155       1.238e+01      -1.955e+01       4.139e-01          -0.359          -0.245          -0.901       3.000e-02         -1.1356
 156       1.238e+01      -1.955e+01       4.438e-01          -0.717          -0.442           0.539       5.098e-02         -6.3280
 157       1.245e+01      -1.955e+01       4.875e-01          -0.367          -0.216           0.905       8.856e-02         -3.5844
 158       1.258e+01      -1.955e+01       5.251e-01          -0.205          -0.114           0.972       1.318e-01         -1.9757
 159       1.276e+01      -1.955e+01       5.564e-01          -0.131          -0.068           0.989       1.705e-01         -1.3239
 160       1.300e+01      -1.955e+01       5.815e-01          -0.086          -0.041           0.995       2.003e-01         -1.0076
 161       1.326e+01      -1.955e+01       5.991e-01          -0.048          -0.018           0.999       2.189e-01         -0.8253
 162       1.354e+01      -1.955e+01       6.069e-01          -0.008           0.005           1.000       2.250e-01         -0.6977
 163       1.382e+01      -1.955e+01       6.025e-01           0.040           0.031           0.999       2.187e-01         -0.5733
 164       1.409e+01      -1.955e+01       5.855e-01           0.090           0.056           0.994       2.002e-01         -0.4225
 165       1.432e+01      -1.955e+01       5.611e-01           0.121           0.072           0.990       1.700e-01         -0.2817
 166       1.451e+01      -1.955e+01       5.361e-01           0.147           0.084           0.986       1.296e-01         -0.1631
 167       1.464e+01      -1.955e+01       5.153e-01           0.171           0.094           0.981       8.127e-02         -0.0900
 168       1.470e+01      -1.955e+01       5.004e-01           0.334           0.159           0.929       2.913e-02          0.0804
Strip 7
 169       1.436e+01      -1.870e+01       4.713e-01          -0.023          -0.037          -0.999       3.428e-02          0.0813
 170       1.429e+01      -1.870e+01       4.782e-01          -0.117          -0.074          -0.990       1.017e-01          0.2280
 171       1.414e+01      -1.870e+01       4.866e-01          -0.022          -0.034          -0.999       1.615e-01          0.3013
 172       1.394e+01      -1.870e+01       4.820e-01           0.057           0.001          -0.998       2.131e-01          0.2904
 173       1.369e+01      -1.870e+01       4.620e-01           0.098           0.021          -0.995       2.530e-01          0.2550
 174       1.340e+01      -1.870e+01       4.332e-01           0.102           0.024          -0.994       2.776e-01          0.2265
 175       1.310e+01      -1.870e+01       4.074e-01           0.068           0.009          -0.998       2.850e-01          0.2381
 176       1.279e+01      -1.870e+01       3.904e-01           0.044          -0.003          -0.999       2.763e-01          0.2909
 177       1.251e+01      -1.870e+01       3.803e-01           0.026          -0.011          -1.000       2.518e-01          0.3686
 178       1.226e+01      -1.870e+01       3.765e-01           0.003          -0.023          -1.000       2.128e-01          0.4755
 179       1.205e+01      -1.870e+01       3.785e-01          -0.026          -0.040          -0.999       1.616e-01          0.6156
 180       1.191e+01      -1.870e+01       3.845e-01          -0.068          -0.065          -0.996       1.012e-01          0.6857
 181       1.184e+01      -1.870e+01       3.957e-01          -0.362          -0.247          -0.899       3.798e-02         -1.2608
 182       1.184e+01      -1.870e+01       4.281e-01          -0.716          -0.442           0.540       6.418e-02         -6.5829
 183       1.191e+01      -1.870e+01       4.751e-01          -0.364          -0.214           0.906       1.116e-01         -3.7023
 184       1.205e+01      -1.870e+01       5.153e-01          -0.201          -0.112           0.973       1.662e-01         -2.0276
 185       1.226e+01      -1.870e+01       5.482e-01          -0.127          -0.066           0.990       2.151e-01         -1.3564
 186       1.251e+01      -1.870e+01       5.742e-01          -0.081          -0.038           0.996       2.528e-01         -1.0323
 187       1.279e+01      -1.870e+01       5.919e-01          -0.044          -0.015           0.999       2.763e-01         -0.8458
 188       1.310e+01      -1.870e+01       5.989e-01          -0.003           0.008           1.000       2.842e-01         -0.7149
 189       1.340e+01      -1.870e+01       5.927e-01           0.045           0.033           0.998       2.762e-01         -0.5867
 190       1.369e+01      -1.870e+01       5.730e-01           0.094           0.058           0.994       2.530e-01         -0.4318
 191       1.394e+01      -1.870e+01       5.454e-01           0.126           0.074           0.989       2.148e-01         -0.2871
 192       1.414e+01      -1.870e+01       5.174e-01           0.151           0.086           0.985       1.638e-01         -0.1649
 193       1.429e+01      -1.870e+01       4.942e-01           0.175           0.096           0.980       1.027e-01         -0.0883
 194       1.436e+01      -1.870e+01       4.777e-01           0.338           0.161           0.927       3.686e-02          0.0837
Strip 8
 195       1.396e+01      -1.771e+01       4.447e-01          -0.028          -0.038          -0.999       4.236e-02          0.0849
 196       1.388e+01      -1.771e+01       4.525e-01          -0.121          -0.076          -0.990       1.257e-01          0.2338
 197       1.373e+01      -1.771e+01       4.623e-01          -0.026          -0.036          -0.999       1.996e-01          0.3081
 198       1.351e+01      -1.771e+01       4.583e-01           0.052          -0.001          -0.999       2.632e-01          0.2983
 199       1.323e+01      -1.771e+01       4.378e-01           0.093           0.019          -0.995       3.125e-01          0.2638
 200       1.292e+01      -1.771e+01       4.079e-01           0.098           0.022          -0.995       3.429e-01          0.2358
 201       1.259e+01      -1.771e+01       3.813e-01           0.063           0.006          -0.998       3.520e-01          0.2478
 202       1.226e+01      -1.771e+01       3.643e-01           0.039          -0.005          -0.999       3.413e-01          0.3005
 203       1.195e+01      -1.771e+01       3.548e-01           0.021          -0.014          -1.000       3.111e-01          0.3777
 204       1.167e+01      -1.771e+01       3.519e-01          -0.002          -0.026          -1.000       2.629e-01          0.4839
 205       1.145e+01      -1.771e+01       3.550e-01          -0.031          -0.043          -0.999       1.997e-01          0.6222
 206       1.130e+01      -1.771e+01       3.623e-01          -0.073          -0.068          -0.995       1.251e-01          0.6847
 207       1.122e+01      -1.771e+01       3.749e-01          -0.365          -0.249          -0.897       4.705e-02         -1.3190
 208       1.122e+01      -1.771e+01       4.101e-01          -0.716          -0.442           0.541       7.907e-02         -6.7073
 209       1.130e+01      -1.771e+01       4.609e-01          -0.361          -0.212           0.908       1.375e-01         -3.7689
 210       1.145e+01      -1.771e+01       5.039e-01          -0.197          -0.109           0.974       2.050e-01         -2.0544
 211       1.167e+01      -1.771e+01       5.388e-01          -0.123          -0.063           0.990       2.656e-01         -1.3720
 212       1.195e+01      -1.771e+01       5.658e-01          -0.077          -0.035           0.996       3.122e-01         -1.0436
 213       1.226e+01      -1.771e+01       5.836e-01          -0.039          -0.013           0.999       3.413e-01         -0.8548
 214       1.259e+01      -1.771e+01       5.898e-01           0.001           0.010           1.000       3.511e-01         -0.7220
 215       1.292e+01      -1.771e+01       5.815e-01           0.049           0.036           0.998       3.414e-01         -0.5919
 216       1.323e+01      -1.771e+01       5.587e-01           0.099           0.060           0.993       3.128e-01         -0.4349
 217       1.351e+01      -1.771e+01       5.274e-01           0.130           0.076           0.989       2.656e-01         -0.2884
 218       1.373e+01      -1.771e+01       4.958e-01           0.155           0.087           0.984       2.025e-01         -0.1645
 219       1.388e+01      -1.771e+01       4.699e-01           0.180           0.098           0.979       1.271e-01         -0.0861
 220       1.396e+01      -1.771e+01       4.515e-01           0.341           0.162           0.926       4.563e-02          0.0868
Strip 9
 221       1.352e+01      -1.661e+01       4.147e-01          -0.032          -0.040          -0.999       5.143e-02          0.0872
 222       1.343e+01      -1.661e+01       4.237e-01          -0.126          -0.077          -0.989       1.527e-01          0.2375
 223       1.326e+01      -1.661e+01       4.351e-01          -0.031          -0.038          -0.999       2.424e-01          0.3124
 224       1.302e+01      -1.661e+01       4.317e-01           0.048          -0.003          -0.999       3.194e-01          0.3031
 225       1.272e+01      -1.661e+01       4.107e-01           0.089           0.017          -0.996       3.791e-01          0.2688
 226       1.238e+01      -1.661e+01       3.795e-01           0.093           0.020          -0.995       4.159e-01          0.2410
 227       1.202e+01      -1.661e+01       3.520e-01           0.059           0.004          -0.998       4.271e-01          0.2530
 228       1.166e+01      -1.661e+01       3.350e-01           0.035          -0.008          -0.999       4.142e-01          0.3055
 229       1.132e+01      -1.661e+01       3.261e-01           0.017          -0.016          -1.000       3.776e-01          0.3822
 230       1.102e+01      -1.661e+01       3.242e-01          -0.006          -0.029          -1.000       3.192e-01          0.4878
 231       1.078e+01      -1.661e+01       3.287e-01          -0.035          -0.045          -0.998       2.425e-01          0.6252
 232       1.061e+01      -1.661e+01       3.374e-01          -0.077          -0.071          -0.995       1.519e-01          0.6855
 233       1.052e+01      -1.661e+01       3.515e-01          -0.368          -0.251          -0.895       5.724e-02         -1.3220
 234       1.052e+01      -1.661e+01       3.899e-01          -0.716          -0.441           0.541       9.571e-02         -6.7260
 235       1.061e+01      -1.661e+01       4.450e-01          -0.358          -0.210           0.910       1.665e-01         -3.7934
 236       1.078e+01      -1.661e+01       4.912e-01          -0.193          -0.107           0.975       2.485e-01         -2.0615
 237       1.102e+01      -1.661e+01       5.282e-01          -0.118          -0.061           0.991       3.221e-01         -1.3751
 238       1.132e+01      -1.661e+01       5.564e-01          -0.073          -0.033           0.997       3.787e-01         -1.0454
 239       1.166e+01      -1.661e+01       5.744e-01          -0.035          -0.011           0.999       4.141e-01         -0.8560
 240       1.202e+01      -1.661e+01       5.795e-01           0.006           0.012           1.000       4.262e-01         -0.7227
 241       1.238e+01      -1.661e+01       5.689e-01           0.054           0.038           0.998       4.146e-01         -0.5919
 242       1.272e+01      -1.661e+01       5.425e-01           0.103           0.062           0.993       3.799e-01         -0.4341
 243       1.302e+01      -1.661e+01       5.071e-01           0.134           0.077           0.988       3.227e-01         -0.2871
 244       1.326e+01      -1.661e+01       4.717e-01           0.160           0.089           0.983       2.461e-01         -0.1627
 245       1.343e+01      -1.661e+01       4.426e-01           0.184           0.100           0.978       1.544e-01         -0.0836
 246       1.352e+01      -1.661e+01       4.222e-01           0.345           0.164           0.924       5.548e-02          0.0898
Strip 10
 247       1.302e+01      -1.539e+01       3.817e-01          -0.036          -0.042          -0.998       6.148e-02          0.0886
 248       1.293e+01      -1.539e+01       3.918e-01          -0.129          -0.079          -0.988       1.826e-01          0.2400
 249       1.274e+01      -1.539e+01       4.051e-01          -0.035          -0.039          -0.999       2.897e-01          0.3151
 250       1.248e+01      -1.539e+01       4.024e-01           0.044          -0.005          -0.999       3.817e-01          0.3061
 251       1.215e+01      -1.539e+01       3.807e-01           0.085           0.015          -0.996       4.528e-01          0.2717
 252       1.178e+01      -1.539e+01       3.481e-01           0.089           0.018          -0.996       4.968e-01          0.2436
 253       1.139e+01      -1.539e+01       3.197e-01           0.055           0.002          -0.998       5.103e-01          0.2553
 254       1.099e+01      -1.539e+01       3.027e-01           0.031          -0.010          -0.999       4.949e-01          0.3073
 255       1.062e+01      -1.539e+01       2.945e-01           0.013          -0.019          -1.000       4.512e-01          0.3834
 256       1.030e+01      -1.539e+01       2.937e-01          -0.010          -0.031          -0.999       3.815e-01          0.4883
 257       1.003e+01      -1.539e+01       2.997e-01          -0.039          -0.048          -0.998       2.899e-01          0.6254
 258       9.848e+00      -1.539e+01       3.099e-01          -0.081          -0.073          -0.994       1.816e-01          0.6881
 259       9.753e+00      -1.539e+01       3.256e-01          -0.371          -0.253          -0.894       6.856e-02         -1.2787
 260       9.753e+00      -1.539e+01       3.677e-01          -0.715          -0.441           0.542       1.141e-01         -6.6563
 261       9.848e+00      -1.539e+01       4.274e-01          -0.355          -0.208           0.912       1.986e-01         -3.7819
 262       1.003e+01      -1.539e+01       4.771e-01          -0.189          -0.104           0.976       2.967e-01         -2.0524
 263       1.030e+01      -1.539e+01       5.165e-01          -0.114          -0.058           0.992       3.846e-01         -1.3683
 264       1.062e+01      -1.539e+01       5.460e-01          -0.069          -0.031           0.997       4.524e-01         -1.0401
 265       1.099e+01      -1.539e+01       5.641e-01          -0.031          -0.008           0.999       4.948e-01         -0.8516
 266       1.139e+01      -1.539e+01       5.682e-01           0.010           0.014           1.000       5.093e-01         -0.7188
 267       1.178e+01      -1.539e+01       5.551e-01           0.058           0.040           0.998       4.956e-01         -0.5883
 268       1.215e+01      -1.539e+01       5.248e-01           0.107           0.064           0.992       4.543e-01         -0.4308
 269       1.248e+01      -1.539e+01       4.848e-01           0.138           0.079           0.987       3.859e-01         -0.2842
 270       1.274e+01      -1.539e+01       4.450e-01           0.163           0.091           0.982       2.943e-01         -0.1600
 271       1.293e+01      -1.539e+01       4.125e-01           0.187           0.101           0.977       1.847e-01         -0.0809
 272       1.302e+01      -1.539e+01       3.899e-01           0.348           0.165           0.923       6.642e-02          0.0924
Strip 11
 273       1.249e+01      -1.407e+01       3.458e-01          -0.040          -0.043          -0.998       7.244e-02          0.0895
 274       1.239e+01      -1.407e+01       3.572e-01          -0.133          -0.080          -0.988       2.153e-01          0.2418
 275       1.218e+01      -1.407e+01       3.724e-01          -0.038          -0.041          -0.998       3.414e-01          0.3168
 276       1.190e+01      -1.407e+01       3.706e-01           0.040          -0.006          -0.999       4.496e-01          0.3078
 277       1.154e+01      -1.407e+01       3.482e-01           0.082           0.013          -0.997       5.333e-01          0.2732
 278       1.113e+01      -1.407e+01       3.141e-01           0.086           0.016          -0.996       5.851e-01          0.2445
 279       1.070e+01      -1.407e+01       2.846e-01           0.051           0.000          -0.999       6.010e-01          0.2555
 280       1.027e+01      -1.407e+01       2.676e-01           0.027          -0.012          -1.000       5.830e-01          0.3067
 281       9.868e+00      -1.407e+01       2.601e-01           0.009          -0.021          -1.000       5.316e-01          0.3820
 282       9.511e+00      -1.407e+01       2.606e-01          -0.014          -0.033          -0.999       4.495e-01          0.4862
 283       9.224e+00      -1.407e+01       2.681e-01          -0.043          -0.050          -0.998       3.416e-01          0.6234
 284       9.022e+00      -1.407e+01       2.800e-01          -0.085          -0.075          -0.994       2.141e-01          0.6922
 285       8.919e+00      -1.407e+01       2.976e-01          -0.373          -0.254          -0.892       8.093e-02         -1.1965
 286       8.919e+00      -1.407e+01       3.435e-01          -0.715          -0.441           0.543       1.341e-01         -6.5097
 287       9.022e+00      -1.407e+01       4.083e-01          -0.352          -0.206           0.913       2.335e-01         -3.7380
 288       9.224e+00      -1.407e+01       4.618e-01          -0.186          -0.102           0.977       3.491e-01         -2.0291
 289       9.511e+00      -1.407e+01       5.037e-01          -0.111          -0.056           0.992       4.529e-01         -1.3530
 290       9.868e+00      -1.407e+01       5.347e-01          -0.065          -0.029           0.997       5.328e-01         -1.0288
 291       1.027e+01      -1.407e+01       5.530e-01          -0.027          -0.006           1.000       5.829e-01         -0.8427
 292       1.070e+01      -1.407e+01       5.559e-01           0.013           0.016           1.000       6.001e-01         -0.7114
 293       1.113e+01      -1.407e+01       5.400e-01           0.061           0.041           0.997       5.841e-01         -0.5821
 294       1.154e+01      -1.407e+01       5.055e-01           0.111           0.066           0.992       5.355e-01         -0.4257
 295       1.190e+01      -1.407e+01       4.605e-01           0.141           0.081           0.987       4.550e-01         -0.2801
 296       1.218e+01      -1.407e+01       4.160e-01           0.167           0.092           0.982       3.470e-01         -0.1567
 297       1.239e+01      -1.407e+01       3.798e-01           0.191           0.102           0.976       2.178e-01         -0.0782
 298       1.249e+01      -1.407e+01       3.547e-01           0.350           0.166           0.922       7.838e-02          0.0947
Strip 12
 299       1.192e+01      -1.265e+01       3.073e-01          -0.043          -0.044          -0.998       8.425e-02          0.0900
 300       1.180e+01      -1.265e+01       3.202e-01          -0.136          -0.082          -0.987       2.505e-01          0.2431
 301       1.158e+01      -1.265e+01       3.374e-01          -0.042          -0.042          -0.998       3.970e-01          0.3180
 302       1.127e+01      -1.265e+01       3.365e-01           0.037          -0.008          -0.999       5.226e-01          0.3087
 303       1.088e+01      -1.265e+01       3.133e-01           0.078           0.012          -0.997       6.198e-01          0.2735
 304       1.044e+01      -1.265e+01       2.776e-01           0.083           0.015          -0.996       6.800e-01          0.2439
 305       9.970e+00      -1.265e+01       2.470e-01           0.048          -0.002          -0.999       6.986e-01          0.2540
 306       9.501e+00      -1.265e+01       2.300e-01           0.024          -0.013          -1.000       6.778e-01          0.3041
 307       9.059e+00      -1.265e+01       2.232e-01           0.006          -0.023          -1.000       6.180e-01          0.3784
 308       8.670e+00      -1.265e+01       2.250e-01          -0.017          -0.035          -0.999       5.226e-01          0.4817
 309       8.356e+00      -1.265e+01       2.343e-01          -0.046          -0.052          -0.998       3.973e-01          0.6192
 310       8.137e+00      -1.265e+01       2.480e-01          -0.088          -0.077          -0.993       2.491e-01          0.6975
 311       8.024e+00      -1.265e+01       2.675e-01          -0.376          -0.256          -0.891       9.427e-02         -1.0798
 312       8.024e+00      -1.265e+01       3.175e-01          -0.715          -0.441           0.543       1.556e-01         -6.2934
 313       8.137e+00      -1.265e+01       3.878e-01          -0.350          -0.205           0.914       2.710e-01         -3.6642
 314       8.356e+00      -1.265e+01       4.454e-01          -0.183          -0.101           0.978       4.056e-01         -1.9928
 315       8.670e+00      -1.265e+01       4.901e-01          -0.108          -0.054           0.993       5.263e-01         -1.3300
 316       9.059e+00      -1.265e+01       5.225e-01          -0.062          -0.027           0.998       6.193e-01         -1.0122
 317       9.501e+00      -1.265e+01       5.411e-01          -0.024          -0.005           1.000       6.776e-01         -0.8299
 318       9.970e+00      -1.265e+01       5.427e-01           0.016           0.018           1.000       6.978e-01         -0.7012
 319       1.044e+01      -1.265e+01       5.239e-01           0.064           0.043           0.997       6.793e-01         -0.5738
 320       1.088e+01      -1.265e+01       4.847e-01           0.114           0.067           0.991       6.230e-01         -0.4193
 321       1.127e+01      -1.265e+01       4.345e-01           0.145           0.082           0.986       5.293e-01         -0.2753
 322       1.158e+01      -1.265e+01       3.849e-01           0.170           0.093           0.981       4.038e-01         -0.1530
 323       1.180e+01      -1.265e+01       3.448e-01           0.194           0.104           0.976       2.535e-01         -0.0755
 324       1.192e+01      -1.265e+01       3.170e-01           0.353           0.167           0.921       9.125e-02          0.0967
Strip 13
 325       1.131e+01      -1.114e+01       2.665e-01          -0.046          -0.046          -0.998       9.675e-02          0.0901
 326       1.119e+01      -1.114e+01       2.808e-01          -0.139          -0.083          -0.987       2.877e-01          0.2440
 327       1.095e+01      -1.114e+01       3.003e-01          -0.044          -0.043          -0.998       4.559e-01          0.3186
 328       1.061e+01      -1.114e+01       3.003e-01           0.034          -0.009          -0.999       6.000e-01          0.3090
 329       1.018e+01      -1.114e+01       2.763e-01           0.075           0.010          -0.997       7.115e-01          0.2731
 330       9.701e+00      -1.114e+01       2.389e-01           0.080           0.013          -0.997       7.805e-01          0.2422
 331       9.191e+00      -1.114e+01       2.071e-01           0.045          -0.003          -0.999       8.020e-01          0.2509
 332       8.681e+00      -1.114e+01       1.901e-01           0.021          -0.015          -1.000       7.781e-01          0.2998
 333       8.200e+00      -1.114e+01       1.842e-01           0.003          -0.024          -1.000       7.096e-01          0.3727
 334       7.777e+00      -1.114e+01       1.873e-01          -0.020          -0.037          -0.999       6.001e-01          0.4749
 335       7.436e+00      -1.114e+01       1.984e-01          -0.049          -0.054          -0.997       4.562e-01          0.6128
 336       7.197e+00      -1.114e+01       2.140e-01          -0.091          -0.079          -0.993       2.861e-01          0.7033
 337       7.074e+00      -1.114e+01       2.356e-01          -0.378          -0.257          -0.890       1.084e-01         -0.9326
 338       7.074e+00      -1.114e+01       2.900e-01          -0.714          -0.440           0.544       1.783e-01         -6.0111
 339       7.197e+00      -1.114e+01       3.661e-01          -0.347          -0.204           0.915       3.107e-01         -3.5612
 340       7.436e+00      -1.114e+01       4.281e-01          -0.180          -0.099           0.979       4.652e-01         -1.9436
 341       7.777e+00      -1.114e+01       4.757e-01          -0.105          -0.053           0.993       6.039e-01         -1.2997
 342       8.200e+00      -1.114e+01       5.097e-01          -0.059          -0.025           0.998       7.108e-01         -0.9908
 343       8.681e+00      -1.114e+01       5.285e-01          -0.021          -0.003           1.000       7.779e-01         -0.8136
 344       9.191e+00      -1.114e+01       5.287e-01           0.019           0.019           1.000       8.012e-01         -0.6884
 345       9.701e+00      -1.114e+01       5.067e-01           0.067           0.044           0.997       7.801e-01         -0.5637
 346       1.018e+01      -1.114e+01       4.628e-01           0.117           0.069           0.991       7.156e-01         -0.4116
 347       1.061e+01      -1.114e+01       4.068e-01           0.147           0.083           0.986       6.081e-01         -0.2696
 348       1.095e+01      -1.114e+01       3.520e-01           0.173           0.094           0.980       4.639e-01         -0.1491
 349       1.119e+01      -1.114e+01       3.076e-01           0.196           0.105           0.975       2.912e-01         -0.0729
 350       1.131e+01      -1.114e+01       2.771e-01           0.355           0.168           0.920       1.049e-01          0.0983
Strip 14
 351       1.067e+01      -9.559e+00       2.236e-01          -0.049          -0.047          -0.998       1.098e-01          0.0899
 352       1.054e+01      -9.559e+00       2.395e-01          -0.141          -0.084          -0.986       3.266e-01          0.2445
 353       1.028e+01      -9.559e+00       2.613e-01          -0.047          -0.045          -0.998       5.172e-01          0.3189
 354       9.907e+00      -9.559e+00       2.622e-01           0.031          -0.010          -0.999       6.805e-01          0.3089
 355       9.448e+00      -9.559e+00       2.374e-01           0.073           0.009          -0.997       8.069e-01          0.2719
 356       8.927e+00      -9.559e+00       1.982e-01           0.077           0.012          -0.997       8.851e-01          0.2394
 357       8.373e+00      -9.560e+00       1.651e-01           0.043          -0.005          -0.999       9.096e-01          0.2464
 358       7.819e+00      -9.560e+00       1.482e-01           0.018          -0.016          -1.000       8.826e-01          0.2936
 359       7.298e+00      -9.560e+00       1.431e-01           0.000          -0.026          -1.000       8.049e-01          0.3649
 360       6.839e+00      -9.560e+00       1.477e-01          -0.022          -0.038          -0.999       6.809e-01          0.4656
 361       6.469e+00      -9.560e+00       1.607e-01          -0.051          -0.055          -0.997       5.177e-01          0.6039
 362       6.210e+00      -9.560e+00       1.783e-01          -0.093          -0.081          -0.992       3.247e-01          0.7089
 363       6.077e+00      -9.560e+00       2.021e-01          -0.379          -0.258          -0.889       1.232e-01         -0.7575
 364       6.077e+00      -9.560e+00       2.611e-01          -0.714          -0.440           0.544       2.019e-01         -5.6631
 365       6.210e+00      -9.559e+00       3.432e-01          -0.346          -0.202           0.916       3.520e-01         -3.4286
 366       6.469e+00      -9.559e+00       4.098e-01          -0.178          -0.097           0.979       5.274e-01         -1.8817
 367       6.839e+00      -9.559e+00       4.605e-01          -0.102          -0.051           0.993       6.848e-01         -1.2621
 368       7.298e+00      -9.558e+00       4.962e-01          -0.056          -0.024           0.998       8.062e-01         -0.9645
 369       7.819e+00      -9.558e+00       5.152e-01          -0.018          -0.002           1.000       8.824e-01         -0.7939
 370       8.373e+00      -9.558e+00       5.140e-01           0.022           0.021           1.000       9.090e-01         -0.6730
 371       8.927e+00      -9.558e+00       4.887e-01           0.070           0.046           0.997       8.852e-01         -0.5518
 372       9.448e+00      -9.558e+00       4.397e-01           0.119           0.070           0.990       8.121e-01         -0.4028
 373       9.907e+00      -9.558e+00       3.778e-01           0.150           0.084           0.985       6.902e-01         -0.2634
 374       1.028e+01      -9.559e+00       3.173e-01           0.175           0.096           0.980       5.266e-01         -0.1449
 375       1.054e+01      -9.559e+00       2.685e-01           0.199           0.106           0.974       3.306e-01         -0.0705
 376       1.067e+01      -9.559e+00       2.351e-01           0.357           0.169           0.919       1.191e-01          0.0995
Strip 15
 377       1.000e+01      -7.912e+00       1.789e-01          -0.051          -0.048          -0.998       1.231e-01          0.0894
 378       9.860e+00      -7.912e+00       1.964e-01          -0.144          -0.085          -0.986       3.664e-01          0.2448
 379       9.580e+00      -7.911e+00       2.207e-01          -0.049          -0.045          -0.998       5.800e-01          0.3190
 380       9.180e+00      -7.912e+00       2.226e-01           0.029          -0.011          -1.000       7.630e-01          0.3083
 381       8.684e+00      -7.912e+00       1.970e-01           0.071           0.008          -0.997       9.045e-01          0.2701
 382       8.120e+00      -7.912e+00       1.558e-01           0.075           0.011          -0.997       9.923e-01          0.2357
 383       7.521e+00      -7.912e+00       1.215e-01           0.040          -0.006          -0.999       1.020e+00          0.2406
 384       6.923e+00      -7.912e+00       1.045e-01           0.016          -0.018          -1.000       9.897e-01          0.2857
 385       6.359e+00      -7.912e+00       1.003e-01          -0.002          -0.027          -1.000       9.026e-01          0.3548
 386       5.862e+00      -7.912e+00       1.065e-01          -0.025          -0.040          -0.999       7.635e-01          0.4535
 387       5.463e+00      -7.912e+00       1.214e-01          -0.054          -0.057          -0.997       5.806e-01          0.5919
 388       5.182e+00      -7.912e+00       1.411e-01          -0.095          -0.082          -0.992       3.642e-01          0.7134
 389       5.038e+00      -7.912e+00       1.671e-01          -0.381          -0.259          -0.888       1.383e-01         -0.5554
 390       5.038e+00      -7.912e+00       2.309e-01          -0.714          -0.440           0.545       2.260e-01         -5.2455
 391       5.182e+00      -7.912e+00       3.195e-01          -0.344          -0.201           0.917       3.942e-01         -3.2636
 392       5.463e+00      -7.912e+00       3.908e-01          -0.176          -0.096           0.980       5.910e-01         -1.8055
 393       5.862e+00      -7.911e+00       4.447e-01          -0.100          -0.050           0.994       7.676e-01         -1.2164
 394       6.359e+00      -7.911e+00       4.821e-01          -0.054          -0.022           0.998       9.038e-01         -0.9331
 395       6.923e+00      -7.911e+00       5.014e-01          -0.016          -0.000           1.000       9.894e-01         -0.7707
 396       7.521e+00      -7.911e+00       4.987e-01           0.024           0.022           0.999       1.019e+00         -0.6554
 397       8.120e+00      -7.911e+00       4.700e-01           0.072           0.047           0.996       9.928e-01         -0.5384
 398       8.684e+00      -7.911e+00       4.156e-01           0.121           0.071           0.990       9.110e-01         -0.3931
 399       9.180e+00      -7.911e+00       3.476e-01           0.152           0.085           0.985       7.743e-01         -0.2568
 400       9.580e+00      -7.911e+00       2.813e-01           0.177           0.096           0.979       5.908e-01         -0.1406
 401       9.860e+00      -7.911e+00       2.278e-01           0.201           0.107           0.974       3.709e-01         -0.0682
 402       1.000e+01      -7.912e+00       1.913e-01           0.359           0.169           0.918       1.337e-01          0.1002
Strip 16
 403       9.317e+00      -6.210e+00       1.327e-01          -0.053          -0.048          -0.997       1.365e-01          0.0885
 404       9.162e+00      -6.210e+00       1.520e-01          -0.146          -0.085          -0.986       4.063e-01          0.2449
 405       8.860e+00      -6.210e+00       1.787e-01          -0.051          -0.046          -0.998       6.432e-01          0.3189
 406       8.429e+00      -6.210e+00       1.817e-01           0.027          -0.012          -1.000       8.459e-01          0.3076
 407       7.894e+00      -6.210e+00       1.552e-01           0.068           0.007          -0.998       1.003e+00          0.2679
 408       7.286e+00      -6.210e+00       1.121e-01           0.073           0.010          -0.997       1.100e+00          0.2311
 409       6.641e+00      -6.211e+00       7.635e-02           0.038          -0.007          -0.999       1.131e+00          0.2333
 410       5.996e+00      -6.211e+00       5.941e-02           0.014          -0.019          -1.000       1.097e+00          0.2759
 411       5.389e+00      -6.211e+00       5.614e-02          -0.004          -0.028          -1.000       1.001e+00          0.3421
 412       4.854e+00      -6.211e+00       6.389e-02          -0.027          -0.041          -0.999       8.466e-01          0.4380
 413       4.423e+00      -6.211e+00       8.087e-02          -0.056          -0.058          -0.997       6.438e-01          0.5758
 414       4.121e+00      -6.211e+00       1.027e-01          -0.097          -0.083          -0.992       4.039e-01          0.7151
 415       3.965e+00      -6.211e+00       1.311e-01          -0.382          -0.260          -0.887       1.535e-01         -0.3262
 416       3.965e+00      -6.211e+00       1.998e-01          -0.714          -0.440           0.545       2.503e-01         -4.7465
 417       4.121e+00      -6.210e+00       2.949e-01          -0.342          -0.200           0.918       4.366e-01         -3.0597
 418       4.423e+00      -6.210e+00       3.712e-01          -0.174          -0.095           0.980       6.548e-01         -1.7121
 419       4.854e+00      -6.210e+00       4.283e-01          -0.098          -0.049           0.994       8.507e-01         -1.1612
 420       5.389e+00      -6.210e+00       4.676e-01          -0.052          -0.021           0.998       1.002e+00         -0.8959
 421       5.996e+00      -6.210e+00       4.871e-01          -0.014           0.001           1.000       1.097e+00         -0.7441
 422       6.641e+00      -6.210e+00       4.829e-01           0.026           0.023           0.999       1.130e+00         -0.6358
 423       7.286e+00      -6.210e+00       4.506e-01           0.074           0.048           0.996       1.101e+00         -0.5241
 424       7.894e+00      -6.210e+00       3.908e-01           0.123           0.072           0.990       1.010e+00         -0.3830
 425       8.429e+00      -6.210e+00       3.164e-01           0.154           0.086           0.984       8.588e-01         -0.2501
 426       8.860e+00      -6.210e+00       2.440e-01           0.179           0.097           0.979       6.553e-01         -0.1365
 427       9.162e+00      -6.210e+00       1.858e-01           0.203           0.107           0.973       4.115e-01         -0.0663
 428       9.317e+00      -6.210e+00       1.461e-01           0.360           0.170           0.917       1.484e-01          0.1001
Strip 17
 429       8.613e+00      -4.466e+00       8.546e-02          -0.055          -0.049          -0.997       1.497e-01          0.0871
 430       8.446e+00      -4.466e+00       1.064e-01          -0.147          -0.086          -0.985       4.458e-01          0.2448
 431       8.122e+00      -4.466e+00       1.357e-01          -0.053          -0.047          -0.997       7.054e-01          0.3188
 432       7.659e+00      -4.466e+00       1.397e-01           0.025          -0.013          -1.000       9.276e-01          0.3069
 433       7.085e+00      -4.466e+00       1.123e-01           0.067           0.006          -0.998       1.099e+00          0.2655
 434       6.432e+00      -4.467e+00       6.720e-02           0.071           0.009          -0.997       1.206e+00          0.2259
 435       5.740e+00      -4.467e+00       3.013e-02           0.036          -0.008          -0.999       1.240e+00          0.2248
 436       5.047e+00      -4.467e+00       1.319e-02           0.012          -0.020          -1.000       1.203e+00          0.2641
 437       4.394e+00      -4.467e+00       1.086e-02          -0.006          -0.029          -1.000       1.097e+00          0.3265
 438       3.820e+00      -4.467e+00       2.023e-02          -0.029          -0.042          -0.999       9.285e-01          0.4184
 439       3.357e+00      -4.467e+00       3.931e-02          -0.058          -0.059          -0.997       7.061e-01          0.5542
 440       3.033e+00      -4.467e+00       6.331e-02          -0.099          -0.084          -0.991       4.430e-01          0.7117
 441       2.866e+00      -4.467e+00       9.412e-02          -0.384          -0.261          -0.886       1.685e-01         -0.0666
 442       2.866e+00      -4.467e+00       1.680e-01          -0.714          -0.440           0.545       2.741e-01         -4.1402
 443       3.033e+00      -4.467e+00       2.697e-01          -0.341          -0.199           0.919       4.783e-01         -2.8021
 444       3.357e+00      -4.466e+00       3.511e-01          -0.172          -0.094           0.981       7.177e-01         -1.5943
 445       3.820e+00      -4.466e+00       4.116e-01          -0.096          -0.048           0.994       9.327e-01         -1.0929
 446       4.394e+00      -4.466e+00       4.527e-01          -0.050          -0.020           0.999       1.098e+00         -0.8517
 447       5.047e+00      -4.466e+00       4.725e-01          -0.012           0.002           1.000       1.203e+00         -0.7141
 448       5.740e+00      -4.466e+00       4.667e-01           0.028           0.024           0.999       1.239e+00         -0.6152
 449       6.432e+00      -4.466e+00       4.308e-01           0.076           0.049           0.996       1.208e+00         -0.5101
 450       7.085e+00      -4.466e+00       3.654e-01           0.125           0.072           0.989       1.108e+00         -0.3740
 451       7.659e+00      -4.466e+00       2.844e-01           0.156           0.087           0.984       9.422e-01         -0.2446
 452       8.122e+00      -4.466e+00       2.059e-01           0.181           0.098           0.979       7.190e-01         -0.1336
 453       8.446e+00      -4.466e+00       1.428e-01           0.205           0.108           0.973       4.514e-01         -0.0655
 454       8.613e+00      -4.466e+00       9.985e-02           0.362           0.170           0.917       1.629e-01          0.0989
Strip 18
 455       7.897e+00      -2.692e+00       3.735e-02          -0.056          -0.050          -0.997       1.624e-01          0.0852
 456       7.718e+00      -2.692e+00       6.007e-02          -0.149          -0.087          -0.985       4.838e-01          0.2448
 457       7.371e+00      -2.692e+00       9.196e-02          -0.055          -0.048          -0.997       7.654e-01          0.3193
 458       6.876e+00      -2.692e+00       9.706e-02           0.024          -0.014          -1.000       1.006e+00          0.3066
 459       6.262e+00      -2.692e+00       6.870e-02           0.065           0.006          -0.998       1.193e+00          0.2633
 460       5.563e+00      -2.692e+00       2.157e-02           0.069           0.008          -0.998       1.308e+00          0.2203
 461       4.822e+00      -2.692e+00      -1.691e-02           0.035          -0.009          -0.999       1.345e+00          0.2155
 462       4.081e+00      -2.692e+00      -3.384e-02           0.011          -0.021          -1.000       1.305e+00          0.2508
 463       3.383e+00      -2.692e+00      -3.520e-02          -0.007          -0.030          -1.000       1.191e+00          0.3083
 464       2.768e+00      -2.692e+00      -2.419e-02          -0.030          -0.043          -0.999       1.007e+00          0.3941
 465       2.273e+00      -2.692e+00      -2.980e-03          -0.059          -0.060          -0.996       7.662e-01          0.5252
 466       1.926e+00      -2.692e+00       2.326e-02          -0.101          -0.085          -0.991       4.808e-01          0.6996
 467       1.747e+00      -2.692e+00       5.652e-02          -0.385          -0.261          -0.885       1.829e-01          0.2312
 468       1.747e+00      -2.692e+00       1.355e-01          -0.713          -0.440           0.546       2.971e-01         -3.3697
 469       1.926e+00      -2.692e+00       2.441e-01          -0.340          -0.199           0.919       5.185e-01         -2.4549
 470       2.273e+00      -2.692e+00       3.306e-01          -0.171          -0.093           0.981       7.783e-01         -1.4340
 471       2.768e+00      -2.692e+00       3.945e-01          -0.095          -0.047           0.994       1.012e+00         -1.0022
 472       3.383e+00      -2.692e+00       4.376e-01          -0.049          -0.019           0.999       1.192e+00         -0.7968
 473       4.081e+00      -2.692e+00       4.576e-01          -0.010           0.003           1.000       1.305e+00         -0.6813
 474       4.822e+00      -2.692e+00       4.503e-01           0.030           0.025           0.999       1.345e+00         -0.5971
 475       5.563e+00      -2.692e+00       4.106e-01           0.078           0.049           0.996       1.310e+00         -0.5018
 476       6.262e+00      -2.692e+00       3.395e-01           0.127           0.073           0.989       1.203e+00         -0.3713
 477       6.876e+00      -2.692e+00       2.518e-01           0.157           0.087           0.984       1.022e+00         -0.2445
 478       7.371e+00      -2.692e+00       1.670e-01           0.182           0.099           0.978       7.803e-01         -0.1347
 479       7.718e+00      -2.692e+00       9.896e-02           0.206           0.109           0.973       4.900e-01         -0.0674
 480       7.897e+00      -2.692e+00       5.274e-02           0.363           0.171           0.916       1.768e-01          0.0956
Strip 19
 481       7.173e+00      -8.994e-01      -1.126e-02          -0.058          -0.050          -0.997       1.744e-01          0.0844
 482       6.983e+00      -8.994e-01       1.323e-02          -0.150          -0.087          -0.985       5.194e-01          0.2471
 483       6.613e+00      -8.994e-01       4.776e-02          -0.056          -0.048          -0.997       8.217e-01          0.3208
 484       6.085e+00      -8.994e-01       5.395e-02           0.022          -0.014          -1.000       1.080e+00          0.3053
 485       5.430e+00      -8.994e-01       2.465e-02           0.064           0.005          -0.998       1.280e+00          0.2576
 486       4.685e+00      -8.995e-01      -2.454e-02           0.068           0.008          -0.998       1.404e+00          0.2117
 487       3.895e+00      -8.995e-01      -6.443e-02           0.033          -0.009          -0.999       1.444e+00          0.2071
 488       3.105e+00      -8.995e-01      -8.135e-02           0.009          -0.022          -1.000       1.401e+00          0.2429
 489       2.360e+00      -8.995e-01      -8.175e-02          -0.009          -0.031          -0.999       1.278e+00          0.2993
 490       1.705e+00      -8.995e-01      -6.907e-02          -0.032          -0.044          -0.999       1.081e+00          0.3802
 491       1.177e+00      -8.995e-01      -4.571e-02          -0.061          -0.061          -0.996       8.226e-01          0.4996
 492       8.074e-01      -8.995e-01      -1.720e-02          -0.102          -0.086          -0.991       5.162e-01          0.6715
 493       6.169e-01      -8.995e-01       1.852e-02          -0.386          -0.262          -0.885       1.965e-01          0.5464
 494       6.169e-01      -8.995e-01       1.027e-01          -0.713          -0.440           0.546       3.186e-01         -2.2781
 495       8.074e-01      -8.994e-01       2.183e-01          -0.339          -0.198           0.920       5.562e-01         -1.8877
 496       1.177e+00      -8.994e-01       3.099e-01          -0.169          -0.092           0.981       8.351e-01         -1.1525
 497       1.705e+00      -8.994e-01       3.773e-01          -0.093          -0.046           0.995       1.086e+00         -0.8449
 498       2.360e+00      -8.994e-01       4.223e-01          -0.047          -0.018           0.999       1.279e+00         -0.7139
 499       3.105e+00      -8.994e-01       4.426e-01          -0.009           0.003           1.000       1.401e+00         -0.6468
 500       3.895e+00      -8.993e-01       4.336e-01           0.031           0.025           0.999       1.444e+00         -0.5913
 501       4.685e+00      -8.993e-01       3.902e-01           0.079           0.050           0.996       1.407e+00         -0.5155
 502       5.430e+00      -8.994e-01       3.133e-01           0.128           0.074           0.989       1.291e+00         -0.3943
 503       6.085e+00      -8.994e-01       2.189e-01           0.159           0.088           0.983       1.098e+00         -0.2674
 504       6.613e+00      -8.994e-01       1.278e-01           0.184           0.099           0.978       8.379e-01         -0.1524
 505       6.983e+00      -8.994e-01       5.469e-02           0.207           0.109           0.972       5.262e-01         -0.0795
 506       7.173e+00      -8.994e-01       5.149e-03           0.364           0.171           0.916       1.899e-01          0.0866
Strip 20
 507       7.173e+00       8.994e-01      -1.126e-02          -0.058           0.050          -0.997       1.744e-01          0.0844
 508       6.983e+00       8.994e-01       1.323e-02          -0.150           0.087          -0.985       5.194e-01          0.2471
 509       6.613e+00       8.994e-01       4.776e-02          -0.056           0.048          -0.997       8.217e-01          0.3208
 510       6.085e+00       8.994e-01       5.395e-02           0.022           0.014          -1.000       1.080e+00          0.3053
 511       5.430e+00       8.994e-01       2.465e-02           0.064          -0.005          -0.998       1.280e+00          0.2576
 512       4.685e+00       8.995e-01      -2.454e-02           0.068          -0.008          -0.998       1.404e+00          0.2117
 513       3.895e+00       8.995e-01      -6.443e-02           0.033           0.009          -0.999       1.444e+00          0.2071
 514       3.105e+00       8.995e-01      -8.135e-02           0.009           0.022          -1.000       1.401e+00          0.2429
 515       2.360e+00       8.995e-01      -8.175e-02          -0.009           0.031          -0.999       1.278e+00          0.2993
 516       1.705e+00       8.995e-01      -6.907e-02          -0.032           0.044          -0.999       1.081e+00          0.3802
 517       1.177e+00       8.995e-01      -4.571e-02          -0.061           0.061          -0.996       8.226e-01          0.4996
 518       8.074e-01       8.995e-01      -1.720e-02          -0.102           0.086          -0.991       5.162e-01          0.6715
 519       6.169e-01       8.995e-01       1.852e-02          -0.386           0.262          -0.885       1.965e-01          0.5464
 520       6.169e-01       8.995e-01       1.027e-01          -0.713           0.440           0.546       3.186e-01         -2.2781
 521       8.074e-01       8.994e-01       2.183e-01          -0.339           0.198           0.920       5.562e-01         -1.8877
 522       1.177e+00       8.994e-01       3.099e-01          -0.169           0.092           0.981       8.351e-01         -1.1525
 523       1.705e+00       8.994e-01       3.773e-01          -0.093           0.046           0.995       1.086e+00         -0.8449
 524       2.360e+00       8.994e-01       4.223e-01          -0.047           0.018           0.999       1.279e+00         -0.7139
 525       3.105e+00       8.994e-01       4.426e-01          -0.009          -0.003           1.000       1.401e+00         -0.6468
 526       3.895e+00       8.993e-01       4.336e-01           0.031          -0.025           0.999       1.444e+00         -0.5913
 527       4.685e+00       8.993e-01       3.902e-01           0.079          -0.050           0.996       1.407e+00         -0.5155
 528       5.430e+00       8.994e-01       3.133e-01           0.128          -0.074           0.989       1.291e+00         -0.3943
 529       6.085e+00       8.994e-01       2.189e-01           0.159          -0.088           0.983       1.098e+00         -0.2674
 530       6.613e+00       8.994e-01       1.278e-01           0.184          -0.099           0.978       8.379e-01         -0.1524
 531       6.983e+00       8.994e-01       5.469e-02           0.207          -0.109           0.972       5.262e-01         -0.0795
 532       7.173e+00       8.994e-01       5.149e-03           0.364          -0.171           0.916       1.899e-01          0.0866
Strip 21
 533       7.897e+00       2.692e+00       3.735e-02          -0.056           0.050          -0.997       1.624e-01          0.0852
 534       7.718e+00       2.692e+00       6.007e-02          -0.149           0.087          -0.985       4.838e-01          0.2448
 535       7.371e+00       2.692e+00       9.196e-02          -0.055           0.048          -0.997       7.654e-01          0.3193
 536       6.876e+00       2.692e+00       9.706e-02           0.024           0.014          -1.000       1.006e+00          0.3066
 537       6.262e+00       2.692e+00       6.870e-02           0.065          -0.006          -0.998       1.193e+00          0.2633
 538       5.563e+00       2.692e+00       2.157e-02           0.069          -0.008          -0.998       1.308e+00          0.2203
 539       4.822e+00       2.692e+00      -1.691e-02           0.035           0.009          -0.999       1.345e+00          0.2155
 540       4.081e+00       2.692e+00      -3.384e-02           0.011           0.021          -1.000       1.305e+00          0.2508
 541       3.383e+00       2.692e+00      -3.520e-02          -0.007           0.030          -1.000       1.191e+00          0.3083
 542       2.768e+00       2.692e+00      -2.419e-02          -0.030           0.043          -0.999       1.007e+00          0.3941
 543       2.273e+00       2.692e+00      -2.980e-03          -0.059           0.060          -0.996       7.662e-01          0.5252
 544       1.926e+00       2.692e+00       2.326e-02          -0.101           0.085          -0.991       4.808e-01          0.6996
 545       1.747e+00       2.692e+00       5.652e-02          -0.385           0.261          -0.885       1.829e-01          0.2312
 546       1.747e+00       2.692e+00       1.355e-01          -0.713           0.440           0.546       2.971e-01         -3.3697
 547       1.926e+00       2.692e+00       2.441e-01          -0.340           0.199           0.919       5.185e-01         -2.4549
 548       2.273e+00       2.692e+00       3.306e-01          -0.171           0.093           0.981       7.783e-01         -1.4340
 549       2.768e+00       2.692e+00       3.945e-01          -0.095           0.047           0.994       1.012e+00         -1.0022
 550       3.383e+00       2.692e+00       4.376e-01          -0.049           0.019           0.999       1.192e+00         -0.7968
 551       4.081e+00       2.692e+00       4.576e-01          -0.010          -0.003           1.000       1.305e+00         -0.6813
 552       4.822e+00       2.692e+00       4.503e-01           0.030          -0.025           0.999       1.345e+00         -0.5971
 553       5.563e+00       2.692e+00       4.106e-01           0.078          -0.049           0.996       1.310e+00         -0.5018
 554       6.262e+00       2.692e+00       3.395e-01           0.127          -0.073           0.989       1.203e+00         -0.3713
 555       6.876e+00       2.692e+00       2.518e-01           0.157          -0.087           0.984       1.022e+00         -0.2445
 556       7.371e+00       2.692e+00       1.670e-01           0.182          -0.099           0.978       7.803e-01         -0.1347
 557       7.718e+00       2.692e+00       9.896e-02           0.206          -0.109           0.973       4.900e-01         -0.0674
 558       7.897e+00       2.692e+00       5.274e-02           0.363          -0.171           0.916       1.768e-01          0.0956
Strip 22
 559       8.613e+00       4.466e+00       8.546e-02          -0.055           0.049          -0.997       1.497e-01          0.0871
 560       8.446e+00       4.466e+00       1.064e-01          -0.147           0.086          -0.985       4.458e-01          0.2448
 561       8.122e+00       4.466e+00       1.357e-01          -0.053           0.047          -0.997       7.054e-01          0.3188
 562       7.659e+00       4.466e+00       1.397e-01           0.025           0.013          -1.000       9.276e-01          0.3069
 563       7.085e+00       4.466e+00       1.123e-01           0.067          -0.006          -0.998       1.099e+00          0.2655
 564       6.432e+00       4.467e+00       6.720e-02           0.071          -0.009          -0.997       1.206e+00          0.2259
 565       5.740e+00       4.467e+00       3.013e-02           0.036           0.008          -0.999       1.240e+00          0.2248
 566       5.047e+00       4.467e+00       1.319e-02           0.012           0.020          -1.000       1.203e+00          0.2641
 567       4.394e+00       4.467e+00       1.086e-02          -0.006           0.029          -1.000       1.097e+00          0.3265
[...]
 852       1.326e+01       1.955e+01       4.131e-01           0.048           0.000          -0.999       2.188e-01          0.2737
 853       1.300e+01       1.955e+01       4.026e-01           0.030           0.009          -1.000       1.994e-01          0.3520
 854       1.276e+01       1.955e+01       3.979e-01           0.007           0.021          -1.000       1.685e-01          0.4603
 855       1.258e+01       1.956e+01       3.989e-01          -0.022           0.037          -0.999       1.279e-01          0.6034
 856       1.245e+01       1.955e+01       4.039e-01          -0.064           0.062          -0.996       8.007e-02          0.6878
 857       1.238e+01       1.955e+01       4.139e-01          -0.359           0.245          -0.901       3.000e-02         -1.1356
 858       1.238e+01       1.955e+01       4.438e-01          -0.717           0.442           0.539       5.098e-02         -6.3280
 859       1.245e+01       1.955e+01       4.875e-01          -0.367           0.216           0.905       8.856e-02         -3.5844
 860       1.258e+01       1.955e+01       5.251e-01          -0.205           0.114           0.972       1.318e-01         -1.9757
 861       1.276e+01       1.955e+01       5.564e-01          -0.131           0.068           0.989       1.705e-01         -1.3239
 862       1.300e+01       1.955e+01       5.815e-01          -0.086           0.041           0.995       2.003e-01         -1.0076
 863       1.326e+01       1.955e+01       5.991e-01          -0.048           0.018           0.999       2.189e-01         -0.8253
 864       1.354e+01       1.955e+01       6.069e-01          -0.008          -0.005           1.000       2.250e-01         -0.6977
 865       1.382e+01       1.955e+01       6.025e-01           0.040          -0.031           0.999       2.187e-01         -0.5733
 866       1.409e+01       1.955e+01       5.855e-01           0.090          -0.056           0.994       2.002e-01         -0.4225
 867       1.432e+01       1.955e+01       5.611e-01           0.121          -0.072           0.990       1.700e-01         -0.2817
 868       1.451e+01       1.955e+01       5.361e-01           0.147          -0.084           0.986       1.296e-01         -0.1631
 869       1.464e+01       1.955e+01       5.153e-01           0.171          -0.094           0.981       8.127e-02         -0.0900
 870       1.470e+01       1.955e+01       5.004e-01           0.334          -0.159           0.929       2.913e-02          0.0804
Strip 34
 871       1.500e+01       2.028e+01       5.142e-01          -0.014           0.033          -0.999       2.088e-02          0.0637
 872       1.493e+01       2.028e+01       5.195e-01          -0.108           0.070          -0.992       6.186e-02          0.2017
 873       1.481e+01       2.028e+01       5.255e-01          -0.013           0.030          -0.999       9.838e-02          0.2683
 874       1.464e+01       2.028e+01       5.199e-01           0.066          -0.005          -0.998       1.299e-01          0.2522
 875       1.442e+01       2.028e+01       5.008e-01           0.107          -0.025          -0.994       1.544e-01          0.2127
 876       1.418e+01       2.028e+01       4.738e-01           0.111          -0.029          -0.993       1.694e-01          0.1804
 877       1.391e+01       2.028e+01       4.492e-01           0.077          -0.013          -0.997       1.738e-01          0.1896
 878       1.365e+01       2.028e+01       4.322e-01           0.053          -0.002          -0.999       1.684e-01          0.2428
 879       1.341e+01       2.028e+01       4.213e-01           0.035           0.006          -0.999       1.535e-01          0.3228
 880       1.319e+01       2.028e+01       4.160e-01           0.012           0.018          -1.000       1.296e-01          0.4338
 881       1.302e+01       2.028e+01       4.161e-01          -0.017           0.034          -0.999       9.841e-02          0.5819
 882       1.290e+01       2.028e+01       4.202e-01          -0.059           0.059          -0.996       6.157e-02          0.6887
 883       1.283e+01       2.028e+01       4.292e-01          -0.356           0.243          -0.902       2.303e-02         -0.9311
 884       1.283e+01       2.028e+01       4.570e-01          -0.717           0.442           0.538       3.933e-02         -5.9104
 885       1.290e+01       2.028e+01       4.979e-01          -0.371           0.218           0.903       6.831e-02         -3.4029
 886       1.302e+01       2.028e+01       5.335e-01          -0.210           0.117           0.971       1.015e-01         -1.8908
 887       1.319e+01       2.028e+01       5.634e-01          -0.136           0.071           0.988       1.313e-01         -1.2678
 888       1.341e+01       2.027e+01       5.877e-01          -0.091           0.043           0.995       1.542e-01         -0.9630
 889       1.365e+01       2.027e+01       6.051e-01          -0.053           0.020           0.998       1.684e-01         -0.7871
 890       1.391e+01       2.027e+01       6.136e-01          -0.013          -0.003           1.000       1.731e-01         -0.6648
 891       1.418e+01       2.027e+01       6.107e-01           0.036          -0.029           0.999       1.682e-01         -0.5469
 892       1.442e+01       2.027e+01       5.961e-01           0.085          -0.054           0.995       1.540e-01         -0.4041
 893       1.464e+01       2.027e+01       5.744e-01           0.117          -0.070           0.991       1.307e-01         -0.2710
 894       1.481e+01       2.027e+01       5.519e-01           0.142          -0.082           0.986       9.958e-02         -0.1590
 895       1.493e+01       2.028e+01       5.332e-01           0.167          -0.093           0.982       6.246e-02         -0.0922
 896       1.500e+01       2.028e+01       5.196e-01           0.330          -0.158           0.931       2.237e-02          0.0760
Strip 35
 897       1.523e+01       2.086e+01       5.300e-01          -0.010           0.031          -0.999       1.538e-02          0.0394
 898       1.517e+01       2.086e+01       5.347e-01          -0.104           0.069          -0.992       4.555e-02          0.1682
 899       1.506e+01       2.086e+01       5.399e-01          -0.008           0.028          -1.000       7.249e-02          0.2274
 900       1.489e+01       2.086e+01       5.340e-01           0.070          -0.007          -0.998       9.578e-02          0.2069
 901       1.469e+01       2.086e+01       5.152e-01           0.111          -0.027          -0.993       1.138e-01          0.1642
 902       1.446e+01       2.086e+01       4.888e-01           0.115          -0.031          -0.993       1.249e-01          0.1283
 903       1.422e+01       2.086e+01       4.647e-01           0.081          -0.016          -0.997       1.281e-01          0.1343
 904       1.397e+01       2.086e+01       4.477e-01           0.057          -0.005          -0.998       1.241e-01          0.1870
 905       1.374e+01       2.086e+01       4.365e-01           0.039           0.004          -0.999       1.131e-01          0.2695
 906       1.354e+01       2.086e+01       4.306e-01           0.016           0.015          -1.000       9.554e-02          0.3859
 907       1.338e+01       2.086e+01       4.300e-01          -0.013           0.032          -0.999       7.250e-02          0.5431
 908       1.326e+01       2.086e+01       4.333e-01          -0.055           0.057          -0.997       4.535e-02          0.6822
 909       1.320e+01       2.086e+01       4.416e-01          -0.353           0.241          -0.904       1.693e-02         -0.6421
 910       1.320e+01       2.086e+01       4.677e-01          -0.718           0.443           0.538       2.906e-02         -5.2968
 911       1.326e+01       2.086e+01       5.063e-01          -0.374           0.220           0.901       5.045e-02         -3.1431
 912       1.338e+01       2.086e+01       5.402e-01          -0.213           0.119           0.970       7.493e-02         -1.7618
 913       1.354e+01       2.086e+01       5.690e-01          -0.140           0.074           0.987       9.685e-02         -1.1778
 914       1.374e+01       2.086e+01       5.927e-01          -0.095           0.046           0.994       1.137e-01         -0.8888
 915       1.397e+01       2.086e+01       6.100e-01          -0.057           0.023           0.998       1.242e-01         -0.7227
 916       1.422e+01       2.086e+01       6.190e-01          -0.017          -0.001           1.000       1.276e-01         -0.6106
 917       1.446e+01       2.086e+01       6.173e-01           0.031          -0.027           0.999       1.239e-01         -0.5054
 918       1.469e+01       2.086e+01       6.046e-01           0.081          -0.052           0.995       1.134e-01         -0.3775
 919       1.489e+01       2.086e+01       5.851e-01           0.112          -0.068           0.991       9.622e-02         -0.2587
 920       1.506e+01       2.086e+01       5.647e-01           0.138          -0.080           0.987       7.332e-02         -0.1584
 921       1.517e+01       2.086e+01       5.476e-01           0.163          -0.091           0.982       4.598e-02         -0.1019
 922       1.523e+01       2.086e+01       5.351e-01           0.327          -0.157           0.932       1.645e-02          0.0644
Strip 36
 923       1.541e+01       2.130e+01       5.420e-01          -0.006           0.030          -1.000       1.052e-02         -0.0309
 924       1.535e+01       2.130e+01       5.463e-01          -0.100           0.067          -0.993       3.113e-02          0.0814
 925       1.525e+01       2.130e+01       5.508e-01          -0.005           0.027          -1.000       4.956e-02          0.1302
 926       1.509e+01       2.130e+01       5.446e-01           0.074          -0.009          -0.997       6.551e-02          0.1096
 927       1.490e+01       2.130e+01       5.260e-01           0.115          -0.029          -0.993       7.786e-02          0.0709
 928       1.468e+01       2.130e+01       5.002e-01           0.119          -0.033          -0.992       8.544e-02          0.0370
 929       1.445e+01       2.130e+01       4.764e-01           0.085          -0.017          -0.996       8.763e-02          0.0399
 930       1.421e+01       2.130e+01       4.594e-01           0.061          -0.007          -0.998       8.491e-02          0.0873
 931       1.399e+01       2.130e+01       4.479e-01           0.043           0.002          -0.999       7.734e-02          0.1678
 932       1.380e+01       2.130e+01       4.417e-01           0.020           0.013          -1.000       6.532e-02          0.2908
 933       1.365e+01       2.130e+01       4.406e-01          -0.009           0.029          -1.000       4.957e-02          0.4652
 934       1.354e+01       2.130e+01       4.433e-01          -0.051           0.055          -0.997       3.100e-02          0.6498
 935       1.348e+01       2.130e+01       4.509e-01          -0.350           0.240          -0.906       1.155e-02         -0.2866
 936       1.348e+01       2.130e+01       4.758e-01          -0.718           0.443           0.537       1.992e-02         -4.4683
 937       1.354e+01       2.130e+01       5.127e-01          -0.376           0.222           0.900       3.456e-02         -2.7920
 938       1.365e+01       2.130e+01       5.453e-01          -0.217           0.121           0.969       5.129e-02         -1.5742
 939       1.380e+01       2.130e+01       5.732e-01          -0.143           0.076           0.987       6.627e-02         -1.0407
 940       1.399e+01       2.130e+01       5.964e-01          -0.098           0.048           0.994       7.778e-02         -0.7770
 941       1.421e+01       2.130e+01       6.137e-01          -0.061           0.025           0.998       8.492e-02         -0.6340
 942       1.445e+01       2.130e+01       6.231e-01          -0.020           0.001           1.000       8.725e-02         -0.5480
 943       1.468e+01       2.130e+01       6.224e-01           0.028          -0.025           0.999       8.471e-02         -0.4704
 944       1.490e+01       2.130e+01       6.110e-01           0.078          -0.051           0.996       7.750e-02         -0.3697
 945       1.509e+01       2.130e+01       5.932e-01           0.109          -0.066           0.992       6.575e-02         -0.2768
 946       1.525e+01       2.130e+01       5.744e-01           0.135          -0.079           0.988       5.010e-02         -0.1974
 947       1.535e+01       2.130e+01       5.585e-01           0.159          -0.090           0.983       3.141e-02         -0.1563
 948       1.541e+01       2.130e+01       5.468e-01           0.324          -0.156           0.933       1.123e-02          0.0118
Strip 37
 949       1.553e+01       2.160e+01       5.500e-01          -0.004           0.029          -1.000       6.118e-03         -0.3773
 950       1.548e+01       2.160e+01       5.540e-01          -0.098           0.066          -0.993       1.810e-02         -0.3044
 951       1.537e+01       2.160e+01       5.581e-01          -0.002           0.026          -1.000       2.883e-02         -0.2489
 952       1.522e+01       2.160e+01       5.517e-01           0.076          -0.010          -0.997       3.812e-02         -0.2110
 953       1.503e+01       2.160e+01       5.333e-01           0.117          -0.030          -0.993       4.531e-02         -0.1771
 954       1.482e+01       2.160e+01       5.078e-01           0.121          -0.034          -0.992       4.973e-02         -0.1537
 955       1.460e+01       2.160e+01       4.843e-01           0.087          -0.019          -0.996       5.100e-02         -0.1256
 956       1.437e+01       2.160e+01       4.672e-01           0.063          -0.008          -0.998       4.941e-02         -0.0779
 957       1.416e+01       2.160e+01       4.556e-01           0.045           0.000          -0.999       4.500e-02         -0.0125
 958       1.398e+01       2.160e+01       4.491e-01           0.023           0.012          -1.000       3.801e-02          0.0916
 959       1.383e+01       2.160e+01       4.476e-01          -0.006           0.028          -1.000       2.884e-02          0.2716
 960       1.372e+01       2.160e+01       4.500e-01          -0.049           0.053          -0.997       1.803e-02          0.5201
 961       1.367e+01       2.160e+01       4.572e-01          -0.348           0.239          -0.907       6.712e-03          0.0508
 962       1.367e+01       2.160e+01       4.812e-01          -0.718           0.443           0.537       1.161e-02         -3.4425
 963       1.372e+01       2.160e+01       5.170e-01          -0.378           0.223           0.899       2.014e-02         -2.3413
 964       1.383e+01       2.160e+01       5.487e-01          -0.219           0.123           0.968       2.987e-02         -1.3124
 965       1.398e+01       2.160e+01       5.761e-01          -0.146           0.077           0.986       3.858e-02         -0.8583
 966       1.416e+01       2.160e+01       5.989e-01          -0.101           0.049           0.994       4.527e-02         -0.6621
 967       1.437e+01       2.160e+01       6.162e-01          -0.063           0.026           0.998       4.941e-02         -0.5840
 968       1.460e+01       2.160e+01       6.259e-01          -0.023           0.003           1.000       5.076e-02         -0.5583
 969       1.482e+01       2.160e+01       6.257e-01           0.025          -0.024           0.999       4.928e-02         -0.5446
 970       1.503e+01       2.160e+01       6.154e-01           0.075          -0.049           0.996       4.507e-02         -0.5196
 971       1.522e+01       2.160e+01       5.986e-01           0.106          -0.065           0.992       3.824e-02         -0.5129
 972       1.537e+01       2.160e+01       5.809e-01           0.132          -0.078           0.988       2.913e-02         -0.5084
 973       1.548e+01       2.160e+01       5.658e-01           0.157          -0.089           0.984       1.827e-02         -0.5073
 974       1.553e+01       2.160e+01       5.547e-01           0.322          -0.155           0.934       6.528e-03         -0.3267
Strip 38
 975       1.559e+01       2.175e+01       5.540e-01          -0.002           0.028          -1.000       2.007e-03         -0.8116
 976       1.554e+01       2.175e+01       5.579e-01          -0.096           0.066          -0.993       5.938e-03         -0.8004
 977       1.543e+01       2.175e+01       5.618e-01          -0.001           0.025          -1.000       9.458e-03         -0.7477
 978       1.529e+01       2.175e+01       5.553e-01           0.078          -0.010          -0.997       1.251e-02         -0.6314
 979       1.510e+01       2.175e+01       5.369e-01           0.119          -0.031          -0.992       1.487e-02         -0.4916
 980       1.490e+01       2.175e+01       5.116e-01           0.123          -0.035          -0.992       1.632e-02         -0.3719
 981       1.468e+01       2.175e+01       4.882e-01           0.089          -0.019          -0.996       1.673e-02         -0.2866
 982       1.445e+01       2.175e+01       4.712e-01           0.065          -0.009          -0.998       1.621e-02         -0.2184
 983       1.425e+01       2.175e+01       4.595e-01           0.047          -0.001          -0.999       1.476e-02         -0.1541
 984       1.406e+01       2.175e+01       4.528e-01           0.024           0.011          -1.000       1.247e-02         -0.0726
 985       1.392e+01       2.175e+01       4.511e-01          -0.005           0.027          -1.000       9.459e-03          0.0669
 986       1.381e+01       2.175e+01       4.534e-01          -0.047           0.052          -0.998       5.914e-03          0.3284
 987       1.376e+01       2.175e+01       4.604e-01          -0.347           0.238          -0.907       2.200e-03          0.3604
 988       1.376e+01       2.175e+01       4.839e-01          -0.718           0.443           0.537       3.811e-03         -2.3629
 989       1.381e+01       2.175e+01       5.191e-01          -0.379           0.223           0.898       6.611e-03         -1.7440
 990       1.392e+01       2.175e+01       5.504e-01          -0.220           0.123           0.968       9.803e-03         -0.9627
 991       1.406e+01       2.175e+01       5.775e-01          -0.147           0.078           0.986       1.266e-02         -0.6793
 992       1.425e+01       2.174e+01       6.002e-01          -0.102           0.050           0.994       1.485e-02         -0.5863
 993       1.445e+01       2.174e+01       6.175e-01          -0.065           0.027           0.998       1.621e-02         -0.5629
 994       1.468e+01       2.174e+01       6.272e-01          -0.025           0.003           1.000       1.665e-02         -0.5695
 995       1.490e+01       2.174e+01       6.274e-01           0.024          -0.023           0.999       1.616e-02         -0.5903
 996       1.510e+01       2.174e+01       6.175e-01           0.074          -0.049           0.996       1.478e-02         -0.6297
 997       1.529e+01       2.174e+01       6.014e-01           0.105          -0.065           0.992       1.254e-02         -0.7311
 998       1.543e+01       2.175e+01       5.841e-01           0.131          -0.077           0.988       9.554e-03         -0.8555
 999       1.554e+01       2.175e+01       5.695e-01           0.155          -0.088           0.984       5.990e-03         -0.9189
1000       1.559e+01       2.175e+01       5.586e-01           0.321          -0.154           0.934       2.140e-03         -0.7373










